1

   Abaqus 3DEXPERIENCE R2019x                                  Date 27-Aug-2019   Time 23:30:26
   For use by UNIVERSITY SYSTEM OF NEW HAMPSHIRE under license from Dassault Systemes or its subsidiary.



                         The Abaqus Software is a product of:

                           Dassault Systemes SIMULIA Corp.
                           1301 Atwood Avenue, Suite 101W
                              Johnston, RI 02919, USA
 


                   The Abaqus Software is available only under license
                   from Dassault Systemes or its subsidiary and may be
                   used or reproduced only in accordance with the terms
                   of such license.
 
                          On machine Savage 
                          you are authorized to run
                          Abaqus/Standard until 14-Dec-2019

                          Your site id is: 200000000057051 


 
                    For assistance or any other information you may
                    obtain contact information for your local office
                    from the world wide web at:

                      http://www.3ds.com/products/simulia/locations/

 
                * * * * * * * * * * * * * * * * * * * * * * * * * * * * * * 
                *                                                         * 
                *                   *****************                     * 
                *                   *  N O T I C E  *                     * 
                *                   *****************                     * 
                *                                                         * 
                *                                                         * 
                *               Abaqus 3DEXPERIENCE R2019x                * 
                *                                                         * 
                *          BUILD ID: 2018_09_24-14.41.51 157541           * 
                *                                                         * 
                *                                                         * 
                *  Please make sure you are using                         * 
                *  release 3DEXPERIENCE R2019x manuals                    * 
                *  plus the notes accompanying this release.              * 
                *                                                         * 
                *                                                         * 
                *                                                         * 
                *                                                         * 
                *                                                         * 
                *   This program may not be used for commercial purposes  * 
                *           without payment of a commercial fee.          * 
                *                                                         * 
                * * * * * * * * * * * * * * * * * * * * * * * * * * * * * * 


 



     PROCESSING PART, INSTANCE, AND ASSEMBLY INFORMATION
   *******************************************************


     END PROCESSING PART, INSTANCE, AND ASSEMBLY INFORMATION
   ***********************************************************

  *contourintegral, crackname=J-INTEGRAL_CRACK, contours=10, cracktipnodes
  *contourintegral, crackname=KI_CRACK, type=KFACTORS, direction=MERR, contours=10, cracktipnodes



     OPTIONS BEING PROCESSED
   ***************************


  *Heading
  *Node
  *Element, type=C3D20
  *Nset, nset=ASSEMBLY_PLATE-1_SET-10
  *Elset, elset=ASSEMBLY_PLATE-1_SET-10
  *Nset, nset="ASSEMBLY_Edge Seeds-1"
  *Nset, nset="ASSEMBLY_Edge Seeds-2"
  *Nset, nset=ASSEMBLY_SET-53
  *Nset, nset=ASSEMBLY_SET-54
  *Nset, nset=ASSEMBLY_SET-65
  *Nset, nset=ASSEMBLY_SET-67
  *Nset, nset=ASSEMBLY_SET-68
  *Nset, nset=ASSEMBLY_SET-69
  *Nset, nset=ASSEMBLY__PICKEDSET68
  *Nset, nset=ASSEMBLY__PICKEDSET68-10_
  *Nset, nset=ASSEMBLY__PICKEDSET68-11_
  *Nset, nset=ASSEMBLY__PICKEDSET68-12_
  *Nset, nset=ASSEMBLY__PICKEDSET68-13_
  *Nset, nset=ASSEMBLY__PICKEDSET68-14_
  *Nset, nset=ASSEMBLY__PICKEDSET68-15_
  *Nset, nset=ASSEMBLY__PICKEDSET68-16_
  *Nset, nset=ASSEMBLY__PICKEDSET68-17_
  *Nset, nset=ASSEMBLY__PICKEDSET68-18_
  *Nset, nset=ASSEMBLY__PICKEDSET68-19_
  *Nset, nset=ASSEMBLY__PICKEDSET68-1_
  *Nset, nset=ASSEMBLY__PICKEDSET68-20_
  *Nset, nset=ASSEMBLY__PICKEDSET68-21_
  *Nset, nset=ASSEMBLY__PICKEDSET68-22_
  *Nset, nset=ASSEMBLY__PICKEDSET68-23_
  *Nset, nset=ASSEMBLY__PICKEDSET68-24_
  *Nset, nset=ASSEMBLY__PICKEDSET68-25_
  *Nset, nset=ASSEMBLY__PICKEDSET68-26_
  *Nset, nset=ASSEMBLY__PICKEDSET68-27_
  *Nset, nset=ASSEMBLY__PICKEDSET68-28_
  *Nset, nset=ASSEMBLY__PICKEDSET68-29_
  *Nset, nset=ASSEMBLY__PICKEDSET68-2_
  *Nset, nset=ASSEMBLY__PICKEDSET68-30_
  *Nset, nset=ASSEMBLY__PICKEDSET68-31_
  *Nset, nset=ASSEMBLY__PICKEDSET68-32_
  *Nset, nset=ASSEMBLY__PICKEDSET68-33_
  *Nset, nset=ASSEMBLY__PICKEDSET68-34_
  *Nset, nset=ASSEMBLY__PICKEDSET68-35_
  *Nset, nset=ASSEMBLY__PICKEDSET68-36_
  *Nset, nset=ASSEMBLY__PICKEDSET68-37_
  *Nset, nset=ASSEMBLY__PICKEDSET68-38_
  *Nset, nset=ASSEMBLY__PICKEDSET68-39_
  *Nset, nset=ASSEMBLY__PICKEDSET68-3_
  *Nset, nset=ASSEMBLY__PICKEDSET68-40_
  *Nset, nset=ASSEMBLY__PICKEDSET68-41_
  *Nset, nset=ASSEMBLY__PICKEDSET68-4_
  *Nset, nset=ASSEMBLY__PICKEDSET68-5_
  *Nset, nset=ASSEMBLY__PICKEDSET68-6_
  *Nset, nset=ASSEMBLY__PICKEDSET68-7_
  *Nset, nset=ASSEMBLY__PICKEDSET68-8_
  *Nset, nset=ASSEMBLY__PICKEDSET68-9_
  *Nset, nset=ASSEMBLY__PICKEDSET69
  *Nset, nset=ASSEMBLY__PICKEDSET69-10_
  *Nset, nset=ASSEMBLY__PICKEDSET69-11_
  *Nset, nset=ASSEMBLY__PICKEDSET69-12_
  *Nset, nset=ASSEMBLY__PICKEDSET69-13_
  *Nset, nset=ASSEMBLY__PICKEDSET69-14_
  *Nset, nset=ASSEMBLY__PICKEDSET69-15_
  *Nset, nset=ASSEMBLY__PICKEDSET69-16_
  *Nset, nset=ASSEMBLY__PICKEDSET69-17_
  *Nset, nset=ASSEMBLY__PICKEDSET69-18_
  *Nset, nset=ASSEMBLY__PICKEDSET69-19_
  *Nset, nset=ASSEMBLY__PICKEDSET69-1_
  *Nset, nset=ASSEMBLY__PICKEDSET69-20_
  *Nset, nset=ASSEMBLY__PICKEDSET69-21_
  *Nset, nset=ASSEMBLY__PICKEDSET69-22_
  *Nset, nset=ASSEMBLY__PICKEDSET69-23_
  *Nset, nset=ASSEMBLY__PICKEDSET69-24_
  *Nset, nset=ASSEMBLY__PICKEDSET69-25_
  *Nset, nset=ASSEMBLY__PICKEDSET69-26_
  *Nset, nset=ASSEMBLY__PICKEDSET69-27_
  *Nset, nset=ASSEMBLY__PICKEDSET69-28_
  *Nset, nset=ASSEMBLY__PICKEDSET69-29_
  *Nset, nset=ASSEMBLY__PICKEDSET69-2_
  *Nset, nset=ASSEMBLY__PICKEDSET69-30_
  *Nset, nset=ASSEMBLY__PICKEDSET69-31_
  *Nset, nset=ASSEMBLY__PICKEDSET69-32_
  *Nset, nset=ASSEMBLY__PICKEDSET69-33_
  *Nset, nset=ASSEMBLY__PICKEDSET69-34_
  *Nset, nset=ASSEMBLY__PICKEDSET69-35_
  *Nset, nset=ASSEMBLY__PICKEDSET69-36_
  *Nset, nset=ASSEMBLY__PICKEDSET69-37_
  *Nset, nset=ASSEMBLY__PICKEDSET69-38_
  *Nset, nset=ASSEMBLY__PICKEDSET69-39_
  *Nset, nset=ASSEMBLY__PICKEDSET69-3_
  *Nset, nset=ASSEMBLY__PICKEDSET69-40_
  *Nset, nset=ASSEMBLY__PICKEDSET69-41_
  *Nset, nset=ASSEMBLY__PICKEDSET69-4_
  *Nset, nset=ASSEMBLY__PICKEDSET69-5_
  *Nset, nset=ASSEMBLY__PICKEDSET69-6_
  *Nset, nset=ASSEMBLY__PICKEDSET69-7_
  *Nset, nset=ASSEMBLY__PICKEDSET69-8_
  *Nset, nset=ASSEMBLY__PICKEDSET69-9_
  *Elset, elset="ASSEMBLY_Edge Seeds-1"
  *Elset, elset="ASSEMBLY_Edge Seeds-2"
  *Elset, elset=ASSEMBLY_SET-65
  *Elset, elset=ASSEMBLY_SET-68
  *Elset, elset=ASSEMBLY_SET-69
  *Elset, elset=ASSEMBLY__PICKEDSET68
  *Elset, elset=ASSEMBLY__PICKEDSET69
  *Elset, elset=ASSEMBLY__SURF-4_S2
  *Elset, elset=ASSEMBLY__SURF-4_S3
  *Elset, elset=ASSEMBLY__SURF-4_S4
  *material, name=MATERIAL-1
  *elastic
  *solidsection, elset=ASSEMBLY_PLATE-1_SET-10, material=MATERIAL-1
  *solidsection, elset=ASSEMBLY_PLATE-1_SET-10, material=MATERIAL-1
  *surface, type=ELEMENT, name=ASSEMBLY_SURF-4
  *surface, type=ELEMENT, name=ASSEMBLY_SURF-4
  *boundary
  *boundary
  *boundary
  *boundary
  *boundary
  *boundary
  *surface, type=ELEMENT, name=ASSEMBLY_SURF-4
  *output, field
  *output, history, frequency=0
  *elementoutput, directions=YES
  *output, field
  *output, history, frequency=0
  *elementoutput, directions=YES
  *output, field
  *output, history, frequency=0
  *elementoutput, directions=YES
  
                               E L E M E N T   Q U A L I T Y  C H E C K S        
  
  
 ***NOTES: DISTORTED ISOPARAMETRIC ELEMENTS: ANGLE BETWEEN ISOPARAMETRIC LINES 
           IS LESS THAN 45 DEGREES OR GREATER THAN 135 DEGREES.
  
           TETRAHEDRAL QUALITY MEASURE: VOLUME OF TETRAHEDRON DIVIDED BY THE 
           VOLUME OF EQUILATERAL TETRAHEDRON WITH SAME CIRCUMSPHERE RADIUS; 
           0 FOR DEGENERATE TETRAHEDRON AND 1 FOR EQUILATERIAL TETRAHEDRON. IT 
           IS RECOMMENDED THAT THE TETRAHEDRAL QUALITY MEASURE BE GREATER THAN 
           0.02, THE MIN INTERIOR (DIHEDRAL) ANGLE BE GREATER THAN 10 DEGREES, 
           AND THE MAX INTERIOR (DIHEDRAL) ANGLE BE LESS THAN 160 DEGREES. 
  
           MODIFIED TETRAHEDRAL QUALITY MEASURE: ANGLES BETWEEN THE TWO LINE 
           SEGMENTS ON EACH EDGE; THE EDGES OF MODIFIED TETRAHEDRAL SHOULD BE 
           AS STRAIGHT AS POSSIBLE. IT IS RECOMMENDED THAT THE ANGLE BETWEEN 
           THE TWO LINE SEGMENTS ON EACH EDGE IS BETWEEN 160 AND 180 DEGREES. 
  
           TRIANGULAR QUALITY MEASURE: AREA OF TRIANGLE DIVIDED BY THE AREA OF 
           EQUILATERAL TRIANGLE WITH SAME CIRCUMCIRCLE RADIUS; 0 FOR DEGENERATE 
           TRIANGLE AND 1 FOR EQUILATERAL TRIANGLE. IT IS RECOMMENDED THAT THE
           TRIANGULAR QUALITY MEASURE BE GREATER THAN 0.01, THE MIN INTERIOR 
           ANGLE BE GREATER THAN 10 DEGREES, AND THE MAX INTERIOR ANGLE BE LESS 
           THAN 160 DEGREES. 
  
           NODAL ADJUSTMENTS ARISING FROM CONTACT INTERACTIONS AND/OR TIE 
           CONSTRAINTS CAN CAUSE SEVERE ELEMENT DISTORTION. IT MAY BE NECESSARY 
           TO REMESH IN ORDER TO REDUCE THE AMOUNT OF ADJUSTMENT. 

 ***WARNING: 2948 elements are distorted. Either the isoparametric angles are 
             out of the suggested limits or the triangular or tetrahedral 
             quality measure is bad. The elements have been identified in 
             element set WarnElemDistorted.

 ***WARNING: The aspect ratio for 480 elements exceeds 100 to 1. The elements 
             have been identified in element set WarnElemAspectRatio.
  
 --------------------------------------------------------------------------------
 Distorted isoparametric elements
  
      Element       Min/max angle   Adjusted nodes 
 ----------------- ---------------- -------------- 
        PLATE-1.43          43.4036       NO       
        PLATE-1.44          41.9792       NO       
        PLATE-1.45          40.7086       NO       
        PLATE-1.46          39.5543       NO       
        PLATE-1.47          38.5406       NO       
        PLATE-1.48          37.7439       NO       
        PLATE-1.49          37.2578       NO       
        PLATE-1.50          36.6988       NO       
        PLATE-1.91          36.6912       NO       
        PLATE-1.92          37.1937       NO       
        PLATE-1.93          37.6973       NO       
        PLATE-1.94          38.5121       NO       
        PLATE-1.95          39.5436       NO       
        PLATE-1.96          40.7089       NO       
        PLATE-1.97          41.9859       NO       
        PLATE-1.98          43.4169       NO       
      PLATE-1.3523          43.3707       NO       
      PLATE-1.3524          41.2051       NO       
      PLATE-1.3525          39.4815       NO       
      PLATE-1.3526          38.1517       NO       
      PLATE-1.3527          37.1811       NO       
      PLATE-1.3528          36.5483       NO       
      PLATE-1.3529          36.2477       NO       
      PLATE-1.3530          36.2271       NO       
      PLATE-1.3531          36.3476       NO       
      PLATE-1.3532          36.8453       NO       
      PLATE-1.3533          37.7761       NO       
      PLATE-1.3534           39.228       NO       
      PLATE-1.3535          41.3404       NO       
      PLATE-1.3536          44.3471       NO       
      PLATE-1.3543          43.9014       NO       
      PLATE-1.3544          42.1846       NO       
      PLATE-1.3545          40.8882       NO       
      PLATE-1.3546          39.9784       NO       
      PLATE-1.3547          39.4397       NO       
      PLATE-1.3548           39.273       NO       
      PLATE-1.3549           39.289       NO       
      PLATE-1.3550          39.6044       NO       
      PLATE-1.3551          40.3637       NO       
      PLATE-1.3552          41.6427       NO       
      PLATE-1.3553          43.5625       NO       
      PLATE-1.3563          44.0353       NO       
      PLATE-1.3564          42.7668       NO       
      PLATE-1.3565          41.9006       NO       
      PLATE-1.3566          41.4243       NO       
      PLATE-1.3567          41.3421       NO       
      PLATE-1.3568          41.3808       NO       
      PLATE-1.3569          41.8171       NO       
      PLATE-1.3570          42.7362       NO       
      PLATE-1.3571          44.2258       NO       
      PLATE-1.3583          44.1106       NO       
      PLATE-1.3584           43.272       NO       
      PLATE-1.3585          42.8313       NO       
      PLATE-1.3586          42.7881       NO       
      PLATE-1.3587          42.8474       NO       
      PLATE-1.3588          43.3483       NO       
      PLATE-1.3589          44.3509       NO       
      PLATE-1.3603          44.3581       NO       
      PLATE-1.3604          43.9392       NO       
      PLATE-1.3605          43.9012       NO       
      PLATE-1.3606          43.9859       NO       
      PLATE-1.3607          44.5194       NO       
      PLATE-1.3623          44.9213       NO       
      PLATE-1.3624          44.8866       NO       
      PLATE-1.3625          44.9869       NO       
      PLATE-1.4134           43.495       NO       
      PLATE-1.4135          41.2099       NO       
      PLATE-1.4136          39.6579       NO       
      PLATE-1.4137           38.747       NO       
      PLATE-1.4138          38.4308       NO       
      PLATE-1.4139          38.4385       NO       
      PLATE-1.4140          38.8534       NO       
      PLATE-1.4141          39.9226       NO       
      PLATE-1.4142          41.7668       NO       
      PLATE-1.4143          44.5937       NO       
      PLATE-1.4150          41.7379       NO       
      PLATE-1.4151           36.782       NO       
      PLATE-1.4152            33.11       NO       
      PLATE-1.4153          30.4932       NO       
      PLATE-1.4154          28.6739       NO       
      PLATE-1.4155           27.497       NO       
      PLATE-1.4156          26.8639       NO       
      PLATE-1.4157          26.7232       NO       
      PLATE-1.4158          26.7579       NO       
      PLATE-1.4159          27.2307       NO       
      PLATE-1.4160          28.2748       NO       
      PLATE-1.4161          30.0389       NO       
      PLATE-1.4162          32.7972       NO       
      PLATE-1.4163          37.0584       NO       
      PLATE-1.4164          43.7313       NO       
      PLATE-1.4170          42.8626       NO       
      PLATE-1.4171          41.1356       NO       
      PLATE-1.4172          39.8272       NO       
      PLATE-1.4173           38.904       NO       
      PLATE-1.4174          38.3464       NO       
      PLATE-1.4175          38.1535       NO       
      PLATE-1.4176          38.1625       NO       
      PLATE-1.4177          38.4418       NO       
      PLATE-1.4178           39.153       NO       
      PLATE-1.4179          40.3685       NO       
      PLATE-1.4180          42.2053       NO       
      PLATE-1.4181            44.84       NO       
      PLATE-1.4189          44.7081       NO       
      PLATE-1.4190          42.9847       NO       
      PLATE-1.4191          41.6973       NO       
      PLATE-1.4192          40.8126       NO       
      PLATE-1.4193          40.3135       NO       
      PLATE-1.4194          40.2033       NO       
      PLATE-1.4195          40.2347       NO       
      PLATE-1.4196          40.6342       NO       
      PLATE-1.4197          41.5049       NO       
      PLATE-1.4198           42.933       NO       
      PLATE-1.4209          44.5855       NO       
      PLATE-1.4210          43.3191       NO       
      PLATE-1.4211          42.4684       NO       
      PLATE-1.4212          42.0192       NO       
      PLATE-1.4213          41.9742       NO       
      PLATE-1.4214          42.0269       NO       
      PLATE-1.4215          42.5226       NO       
      PLATE-1.4216          43.5198       NO       
      PLATE-1.4229          44.6351       NO       
      PLATE-1.4230            43.81       NO       
      PLATE-1.4231           43.395       NO       
      PLATE-1.4232          43.3592       NO       
      PLATE-1.4233          43.4595       NO       
      PLATE-1.4234          44.0177       NO       
      PLATE-1.4249          44.9328       NO       
      PLATE-1.4250          44.5406       NO       
      PLATE-1.4251          44.5106       NO       
      PLATE-1.4252          44.6403       NO       
      PLATE-1.4782          43.8723       NO       
      PLATE-1.4783          43.0505       NO       
      PLATE-1.4784          42.8268       NO       
      PLATE-1.4785          42.8575       NO       
      PLATE-1.4786           43.383       NO       
      PLATE-1.4787          44.5838       NO       
      PLATE-1.4797          41.8307       NO       
      PLATE-1.4798          38.2045       NO       
      PLATE-1.4799          35.5411       NO       
      PLATE-1.4800          33.6601       NO       
      PLATE-1.4801          32.4339       NO       
      PLATE-1.4802           31.787       NO       
      PLATE-1.4803          31.6793       NO       
      PLATE-1.4804           31.729       NO       
      PLATE-1.4805          32.3029       NO       
      PLATE-1.4806          33.5143       NO       
      PLATE-1.4807          35.5177       NO       
      PLATE-1.4808          38.5833       NO       
      PLATE-1.4809          43.1669       NO       
      PLATE-1.4816            43.88       NO       
      PLATE-1.4817          42.1521       NO       
      PLATE-1.4818          40.8597       NO       
      PLATE-1.4819          39.9687       NO       
      PLATE-1.4820          39.4622       NO       
      PLATE-1.4821          39.3417       NO       
      PLATE-1.4822          39.3704       NO       
      PLATE-1.4823          39.7559       NO       
      PLATE-1.4824           40.609       NO       
      PLATE-1.4825          42.0161       NO       
      PLATE-1.4826          44.1105       NO       
      PLATE-1.4836          43.4318       NO       
      PLATE-1.4837          42.1527       NO       
      PLATE-1.4838           41.283       NO       
      PLATE-1.4839           40.808       NO       
      PLATE-1.4840          40.7313       NO       
      PLATE-1.4841           40.772       NO       
      PLATE-1.4842          41.2196       NO       
      PLATE-1.4843          42.1555       NO       
      PLATE-1.4844          43.6709       NO       
      PLATE-1.4855          44.6652       NO       
      PLATE-1.4856          43.4009       NO       
      PLATE-1.4857           42.553       NO       
      PLATE-1.4858          42.1078       NO       
      PLATE-1.4859           42.064       NO       
      PLATE-1.4860          42.1227       NO       
      PLATE-1.4861          42.6272       NO       
      PLATE-1.4862          43.6366       NO       
      PLATE-1.4875          44.5295       NO       
      PLATE-1.4876          43.7007       NO       
      PLATE-1.4877          43.2793       NO       
      PLATE-1.4878          43.2417       NO       
      PLATE-1.4879          43.3328       NO       
      PLATE-1.4880          43.8785       NO       
      PLATE-1.4881          44.9398       NO       
      PLATE-1.4895          44.7429       NO       
      PLATE-1.4896          44.3392       NO       
      PLATE-1.4897          44.3061       NO       
      PLATE-1.4898          44.4197       NO       
      PLATE-1.4899          44.9918       NO       
      PLATE-1.5444          41.6302       NO       
      PLATE-1.5445          39.0485       NO       
      PLATE-1.5446           37.207       NO       
      PLATE-1.5447          36.0169       NO       
      PLATE-1.5448          35.4137       NO       
      PLATE-1.5449          35.3528       NO       
      PLATE-1.5450          35.4396       NO       
      PLATE-1.5451          36.1156       NO       
      PLATE-1.5452          37.4643       NO       
      PLATE-1.5453          39.6417       NO       
      PLATE-1.5454          42.9052       NO       
      PLATE-1.5462          44.4584       NO       
      PLATE-1.5463          42.7285       NO       
      PLATE-1.5464          41.4457       NO       
      PLATE-1.5465          40.5737       NO       
      PLATE-1.5466          40.0971       NO       
      PLATE-1.5467          40.0202       NO       
      PLATE-1.5468          40.0607       NO       
      PLATE-1.5469           40.508       NO       
      PLATE-1.5470          41.4456       NO       
      PLATE-1.5471          42.9656       NO       
      PLATE-1.5482          43.7045       NO       
      PLATE-1.5483          42.4309       NO       
      PLATE-1.5484          41.5711       NO       
      PLATE-1.5485          41.1104       NO       
      PLATE-1.5486          41.0543       NO       
      PLATE-1.5487          41.1005       NO       
      PLATE-1.5488          41.5779       NO       
      PLATE-1.5489          42.5532       NO       
      PLATE-1.5490          44.1209       NO       
      PLATE-1.5501          44.6714       NO       
      PLATE-1.5502          43.4099       NO       
      PLATE-1.5503          42.5626       NO       
      PLATE-1.5504          42.1186       NO       
      PLATE-1.5505           42.075       NO       
      PLATE-1.5506          42.1346       NO       
      PLATE-1.5507          42.6393       NO       
      PLATE-1.5508          43.6491       NO       
      PLATE-1.5521          44.3674       NO       
      PLATE-1.5522           43.533       NO       
      PLATE-1.5523          43.1037       NO       
      PLATE-1.5524          43.0638       NO       
      PLATE-1.5525          43.1413       NO       
      PLATE-1.5526          43.6685       NO       
      PLATE-1.5527          44.7058       NO       
      PLATE-1.5541          44.4808       NO       
      PLATE-1.5542          44.0641       NO       
      PLATE-1.5543          44.0272       NO       
      PLATE-1.5544          44.1195       NO       
      PLATE-1.5545          44.6644       NO       
      PLATE-1.5562          44.9771       NO       
      PLATE-1.6090          44.5188       NO       
      PLATE-1.6091          42.0869       NO       
      PLATE-1.6092          40.3409       NO       
      PLATE-1.6093           39.231       NO       
      PLATE-1.6094          38.7027       NO       
      PLATE-1.6095          38.6603       NO       
      PLATE-1.6096          38.8299       NO       
      PLATE-1.6097          39.6023       NO       
      PLATE-1.6098          41.0626       NO       
      PLATE-1.6099          43.3624       NO       
      PLATE-1.6108          44.7812       NO       
      PLATE-1.6109          43.0455       NO       
      PLATE-1.6110          41.7656       NO       
      PLATE-1.6111          40.9035       NO       
      PLATE-1.6112          40.4432       NO       
      PLATE-1.6113          40.3889       NO       
      PLATE-1.6114          40.4358       NO       
      PLATE-1.6115          40.9179       NO       
      PLATE-1.6116          41.9013       NO       
      PLATE-1.6117          43.4829       NO       
      PLATE-1.6128           43.942       NO       
      PLATE-1.6129          42.6732       NO       
      PLATE-1.6130          41.8198       NO       
      PLATE-1.6131           41.369       NO       
      PLATE-1.6132          41.3241       NO       
      PLATE-1.6133          41.3769       NO       
      PLATE-1.6134          41.8738       NO       
      PLATE-1.6135           42.875       NO       
      PLATE-1.6136          44.4772       NO       
      PLATE-1.6147          44.7465       NO       
      PLATE-1.6148          43.4874       NO       
      PLATE-1.6149          42.6435       NO       
      PLATE-1.6150           42.201       NO       
      PLATE-1.6151          42.1579       NO       
      PLATE-1.6152          42.2201       NO       
      PLATE-1.6153          42.7278       NO       
      PLATE-1.6154          43.7412       NO       
      PLATE-1.6167           44.313       NO       
      PLATE-1.6168          43.4776       NO       
      PLATE-1.6169          43.0442       NO       
      PLATE-1.6170           43.003       NO       
      PLATE-1.6171          43.0746       NO       
      PLATE-1.6172          43.5927       NO       
      PLATE-1.6173          44.6171       NO       
      PLATE-1.6187          44.3434       NO       
      PLATE-1.6188          43.9192       NO       
      PLATE-1.6189          43.8802       NO       
      PLATE-1.6190           43.961       NO       
      PLATE-1.6191          44.4891       NO       
      PLATE-1.6207          44.8224       NO       
      PLATE-1.6208          44.7856       NO       
      PLATE-1.6209          44.8756       NO       
      PLATE-1.6738          43.6626       NO       
      PLATE-1.6739           42.675       NO       
      PLATE-1.6740          42.2507       NO       
      PLATE-1.6741          42.2313       NO       
      PLATE-1.6742          42.4966       NO       
      PLATE-1.6743          43.3659       NO       
      PLATE-1.6744          44.9206       NO       
      PLATE-1.6755          43.4452       NO       
      PLATE-1.6756          42.1683       NO       
      PLATE-1.6757          41.3146       NO       
      PLATE-1.6758          40.8669       NO       
      PLATE-1.6759          40.8229       NO       
      PLATE-1.6760          40.8817       NO       
      PLATE-1.6761          41.3878       NO       
      PLATE-1.6762          42.4031       NO       
      PLATE-1.6763          44.0267       NO       
      PLATE-1.6774          44.4665       NO       
      PLATE-1.6775          43.2032       NO       
      PLATE-1.6776          42.3587       NO       
      PLATE-1.6777          41.9194       NO       
      PLATE-1.6778          41.8774       NO       
      PLATE-1.6779          41.9445       NO       
      PLATE-1.6780          42.4611       NO       
      PLATE-1.6781          43.4867       NO       
      PLATE-1.6794          43.8762       NO       
      PLATE-1.6795          43.0379       NO       
      PLATE-1.6796          42.6028       NO       
      PLATE-1.6797          42.5614       NO       
      PLATE-1.6798          42.6311       NO       
      PLATE-1.6799          43.1488       NO       
      PLATE-1.6800           44.174       NO       
      PLATE-1.6813           44.557       NO       
      PLATE-1.6814           43.726       NO       
      PLATE-1.6815          43.2953       NO       
      PLATE-1.6816          43.2549       NO       
      PLATE-1.6817           43.328       NO       
      PLATE-1.6818          43.8484       NO       
      PLATE-1.6819          44.8741       NO       
      PLATE-1.6833          44.4997       NO       
      PLATE-1.6834          44.0761       NO       
      PLATE-1.6835           44.037       NO       
      PLATE-1.6836          44.1158       NO       
      PLATE-1.6837           44.641       NO       
      PLATE-1.6853          44.9307       NO       
      PLATE-1.6854          44.8932       NO       
      PLATE-1.6855          44.9794       NO       
      PLATE-1.7402          43.8373       NO       
      PLATE-1.7403          43.0048       NO       
      PLATE-1.7404          42.5825       NO       
      PLATE-1.7405          42.5447       NO       
      PLATE-1.7406          42.6357       NO       
      PLATE-1.7407          43.1819       NO       
      PLATE-1.7408          44.2461       NO       
      PLATE-1.7421          44.9944       NO       
      PLATE-1.7422          44.1687       NO       
      PLATE-1.7423          43.7495       NO       
      PLATE-1.7424          43.7123       NO       
      PLATE-1.7425          43.8048       NO       
      PLATE-1.7426          44.3508       NO       
      PLATE-1.7441          44.6026       NO       
      PLATE-1.7442          44.1844       NO       
      PLATE-1.7443           44.147       NO       
      PLATE-1.7444          44.2364       NO       
      PLATE-1.7445          44.7759       NO       
      PLATE-1.7461           44.653       NO       
      PLATE-1.7462          44.6157       NO       
      PLATE-1.7463          44.7047       NO       
      PLATE-1.8024          44.6121       NO       
      PLATE-1.8670          43.8521       NO       
      PLATE-1.9316          43.1071       NO       
      PLATE-1.9962          42.8846       NO       
      PLATE-1.9983          38.1634       NO       
      PLATE-1.9984          32.1147       NO       
      PLATE-1.9985          28.2882       NO       
      PLATE-1.9986          25.8215       NO       
      PLATE-1.9987           24.249       NO       
      PLATE-1.9988          23.3138       NO       
      PLATE-1.9989           22.878       NO       
      PLATE-1.9990           22.841       NO       
      PLATE-1.9991          22.9351       NO       
      PLATE-1.9992           23.452       NO       
      PLATE-1.9993          24.4346       NO       
      PLATE-1.9994          25.9458       NO       
      PLATE-1.9995          28.1417       NO       
      PLATE-1.9996          31.2936       NO       
      PLATE-1.9997          35.8617       NO       
      PLATE-1.9998          42.8188       NO       
     PLATE-1.10002          41.6264       NO       
     PLATE-1.10003          34.8764       NO       
     PLATE-1.10004          30.5778       NO       
     PLATE-1.10005          27.7951       NO       
     PLATE-1.10006          26.0082       NO       
     PLATE-1.10007          24.9273       NO       
     PLATE-1.10008          24.3952       NO       
     PLATE-1.10009          24.3328       NO       
     PLATE-1.10010          24.3821       NO       
     PLATE-1.10011          24.8715       NO       
     PLATE-1.10012          25.8486       NO       
     PLATE-1.10013           27.395       NO       
     PLATE-1.10014          29.6327       NO       
     PLATE-1.10015          32.8518       NO       
     PLATE-1.10016          37.5262       NO       
     PLATE-1.10017          44.6589       NO       
     PLATE-1.10021          44.3915       NO       
     PLATE-1.10022          37.2876       NO       
     PLATE-1.10023          32.6908       NO       
     PLATE-1.10024          29.6852       NO       
     PLATE-1.10025          27.7363       NO       
     PLATE-1.10026          26.5396       NO       
     PLATE-1.10027           25.925       NO       
     PLATE-1.10028          25.8059       NO       
     PLATE-1.10029          25.8441       NO       
     PLATE-1.10030          26.2985       NO       
     PLATE-1.10031          27.2498       NO       
     PLATE-1.10032          28.7847       NO       
     PLATE-1.10033          31.0215       NO       
     PLATE-1.10034          34.2203       NO       
     PLATE-1.10035          38.8556       NO       
     PLATE-1.10041           40.226       NO       
     PLATE-1.10042          35.4117       NO       
     PLATE-1.10043          32.2135       NO       
     PLATE-1.10044          30.1102       NO       
     PLATE-1.10045           28.797       NO       
     PLATE-1.10046          28.0973       NO       
     PLATE-1.10047          27.9175       NO       
     PLATE-1.10048           27.944       NO       
     PLATE-1.10049          28.3591       NO       
     PLATE-1.10050          29.2808       NO       
     PLATE-1.10051           30.786       NO       
     PLATE-1.10052           33.002       NO       
     PLATE-1.10053          36.1336       NO       
     PLATE-1.10054          40.6329       NO       
     PLATE-1.10060          43.9957       NO       
     PLATE-1.10061          39.0187       NO       
     PLATE-1.10062          35.6368       NO       
     PLATE-1.10063          33.3702       NO       
     PLATE-1.10064          31.9246       NO       
     PLATE-1.10065          31.1219       NO       
     PLATE-1.10066           30.864       NO       
     PLATE-1.10067          30.8753       NO       
     PLATE-1.10068          31.2335       NO       
     PLATE-1.10069           32.106       NO       
     PLATE-1.10070          33.5558       NO       
     PLATE-1.10071          35.7025       NO       
     PLATE-1.10072          38.6968       NO       
     PLATE-1.10073          42.9421       NO       
     PLATE-1.10080          43.6789       NO       
     PLATE-1.10081          40.1389       NO       
     PLATE-1.10082          37.7051       NO       
     PLATE-1.10083          36.1073       NO       
     PLATE-1.10084          35.1745       NO       
     PLATE-1.10085          34.8058       NO       
     PLATE-1.10086          34.7944       NO       
     PLATE-1.10087          35.0573       NO       
     PLATE-1.10088          35.8342       NO       
     PLATE-1.10089          37.1694       NO       
     PLATE-1.10090          39.1612       NO       
     PLATE-1.10091          41.9046       NO       
     PLATE-1.10101            43.39       NO       
     PLATE-1.10102          41.6249       NO       
     PLATE-1.10103           40.526       NO       
     PLATE-1.10104          39.9957       NO       
     PLATE-1.10105          39.9479       NO       
     PLATE-1.10106          40.0463       NO       
     PLATE-1.10107          40.6417       NO       
     PLATE-1.10108          41.7558       NO       
     PLATE-1.10109          43.4531       NO       
     PLATE-1.10173          43.3907       NO       
     PLATE-1.10174          41.2121       NO       
     PLATE-1.10175          39.4842       NO       
     PLATE-1.10176          38.1529       NO       
     PLATE-1.10177          37.1816       NO       
     PLATE-1.10178          36.5487       NO       
     PLATE-1.10179          36.2477       NO       
     PLATE-1.10180          36.2271       NO       
     PLATE-1.10181          36.3476       NO       
     PLATE-1.10182          36.8453       NO       
     PLATE-1.10183          37.7761       NO       
     PLATE-1.10184           39.228       NO       
     PLATE-1.10185          41.3405       NO       
     PLATE-1.10186          44.3469       NO       
     PLATE-1.10193          42.8638       NO       
     PLATE-1.10194          41.1362       NO       
     PLATE-1.10195          39.8277       NO       
     PLATE-1.10196          38.9034       NO       
     PLATE-1.10197          38.3463       NO       
     PLATE-1.10198          38.1536       NO       
     PLATE-1.10199          38.1625       NO       
     PLATE-1.10200          38.4417       NO       
     PLATE-1.10201          39.1531       NO       
     PLATE-1.10202          40.3685       NO       
     PLATE-1.10203          42.2052       NO       
     PLATE-1.10204            44.84       NO       
     PLATE-1.10212          43.8725       NO       
     PLATE-1.10213          42.1493       NO       
     PLATE-1.10214           40.859       NO       
     PLATE-1.10215          39.9687       NO       
     PLATE-1.10216          39.4623       NO       
     PLATE-1.10217          39.3421       NO       
     PLATE-1.10218          39.3709       NO       
     PLATE-1.10219          39.7564       NO       
     PLATE-1.10220          40.6094       NO       
     PLATE-1.10221          42.0166       NO       
     PLATE-1.10222          44.1109       NO       
     PLATE-1.10231          44.4427       NO       
     PLATE-1.10232          42.7236       NO       
     PLATE-1.10233          41.4452       NO       
     PLATE-1.10234           40.575       NO       
     PLATE-1.10235          40.0991       NO       
     PLATE-1.10236          40.0221       NO       
     PLATE-1.10237          40.0628       NO       
     PLATE-1.10238          40.5106       NO       
     PLATE-1.10239          41.4482       NO       
     PLATE-1.10240          42.9683       NO       
     PLATE-1.10250          44.8121       NO       
     PLATE-1.10251          43.1014       NO       
     PLATE-1.10252          41.8327       NO       
     PLATE-1.10253          40.9761       NO       
     PLATE-1.10254          40.5193       NO       
     PLATE-1.10255          40.4677       NO       
     PLATE-1.10256          40.5152       NO       
     PLATE-1.10257          41.0002       NO       
     PLATE-1.10258           41.986       NO       
     PLATE-1.10259          43.5716       NO       
     PLATE-1.10270          43.8404       NO       
     PLATE-1.10271          42.5888       NO       
     PLATE-1.10272          41.7489       NO       
     PLATE-1.10273          41.3116       NO       
     PLATE-1.10274          41.2697       NO       
     PLATE-1.10275          41.3378       NO       
     PLATE-1.10276          41.8545       NO       
     PLATE-1.10277          42.8821       NO       
     PLATE-1.10278          44.5197       NO       
     PLATE-1.10291          44.2026       NO       
     PLATE-1.10292          43.7942       NO       
     PLATE-1.10293          43.7595       NO       
     PLATE-1.10294           43.864       NO       
     PLATE-1.10295          44.4255       NO       
     PLATE-1.10364          43.9113       NO       
     PLATE-1.10365          42.1877       NO       
     PLATE-1.10366          40.8889       NO       
     PLATE-1.10367           39.979       NO       
     PLATE-1.10368          39.4402       NO       
     PLATE-1.10369          39.2731       NO       
     PLATE-1.10370           39.289       NO       
     PLATE-1.10371          39.6045       NO       
     PLATE-1.10372          40.3638       NO       
     PLATE-1.10373          41.6428       NO       
     PLATE-1.10374          43.5625       NO       
     PLATE-1.10383          44.7151       NO       
     PLATE-1.10384          42.9881       NO       
     PLATE-1.10385           41.699       NO       
     PLATE-1.10386          40.8132       NO       
     PLATE-1.10387          40.3139       NO       
     PLATE-1.10388          40.2038       NO       
     PLATE-1.10389          40.2353       NO       
     PLATE-1.10390          40.6343       NO       
     PLATE-1.10391          41.5054       NO       
     PLATE-1.10392          42.9335       NO       
     PLATE-1.10403           43.434       NO       
     PLATE-1.10404          42.1551       NO       
     PLATE-1.10405          41.2861       NO       
     PLATE-1.10406          40.8116       NO       
     PLATE-1.10407           40.735       NO       
     PLATE-1.10408          40.7756       NO       
     PLATE-1.10409          41.2236       NO       
     PLATE-1.10410          42.1593       NO       
     PLATE-1.10411          43.6749       NO       
     PLATE-1.10422          43.7179       NO       
     PLATE-1.10423          42.4492       NO       
     PLATE-1.10424          41.5914       NO       
     PLATE-1.10425          41.1319       NO       
     PLATE-1.10426          41.0762       NO       
     PLATE-1.10427          41.1224       NO       
     PLATE-1.10428          41.6003       NO       
     PLATE-1.10429          42.5764       NO       
     PLATE-1.10430          44.1451       NO       
     PLATE-1.10441          44.0184       NO       
     PLATE-1.10442          42.7586       NO       
     PLATE-1.10443           41.911       NO       
     PLATE-1.10444           41.464       NO       
     PLATE-1.10445          41.4196       NO       
     PLATE-1.10446          41.4743       NO       
     PLATE-1.10447          41.9738       NO       
     PLATE-1.10448          42.9777       NO       
     PLATE-1.10449          44.5833       NO       
     PLATE-1.10460          44.7264       NO       
     PLATE-1.10461          43.4813       NO       
     PLATE-1.10462          42.6461       NO       
     PLATE-1.10463          42.2128       NO       
     PLATE-1.10464          42.1719       NO       
     PLATE-1.10465           42.245       NO       
     PLATE-1.10466          42.7665       NO       
     PLATE-1.10467          43.7985       NO       
     PLATE-1.10481          44.7638       NO       
     PLATE-1.10482          44.3518       NO       
     PLATE-1.10483          44.3162       NO       
     PLATE-1.10484          44.4141       NO       
     PLATE-1.10485          44.9667       NO       
     PLATE-1.10555          44.0399       NO       
     PLATE-1.10556           42.768       NO       
     PLATE-1.10557          41.9012       NO       
     PLATE-1.10558          41.4245       NO       
     PLATE-1.10559           41.342       NO       
     PLATE-1.10560          41.3808       NO       
     PLATE-1.10561          41.8177       NO       
     PLATE-1.10562          42.7367       NO       
     PLATE-1.10563          44.2261       NO       
     PLATE-1.10574          44.5902       NO       
     PLATE-1.10575          43.3215       NO       
     PLATE-1.10576          42.4701       NO       
     PLATE-1.10577          42.0202       NO       
     PLATE-1.10578          41.9751       NO       
     PLATE-1.10579          42.0273       NO       
     PLATE-1.10580          42.5226       NO       
     PLATE-1.10581          43.5203       NO       
     PLATE-1.10593          44.6691       NO       
     PLATE-1.10594          43.4045       NO       
     PLATE-1.10595          42.5564       NO       
     PLATE-1.10596          42.1109       NO       
     PLATE-1.10597          42.0671       NO       
     PLATE-1.10598          42.1261       NO       
     PLATE-1.10599          42.6307       NO       
     PLATE-1.10600            43.64       NO       
     PLATE-1.10612           44.683       NO       
     PLATE-1.10613          43.4238       NO       
     PLATE-1.10614          42.5783       NO       
     PLATE-1.10615          42.1343       NO       
     PLATE-1.10616          42.0909       NO       
     PLATE-1.10617          42.1513       NO       
     PLATE-1.10618          42.6565       NO       
     PLATE-1.10619          43.6667       NO       
     PLATE-1.10631          44.7919       NO       
     PLATE-1.10632          43.5405       NO       
     PLATE-1.10633          42.6996       NO       
     PLATE-1.10634          42.2594       NO       
     PLATE-1.10635          42.2166       NO       
     PLATE-1.10636          42.2796       NO       
     PLATE-1.10637          42.7888       NO       
     PLATE-1.10638          43.8045       NO       
     PLATE-1.10651          44.0158       NO       
     PLATE-1.10652          43.1836       NO       
     PLATE-1.10653           42.752       NO       
     PLATE-1.10654          42.7113       NO       
     PLATE-1.10655          42.7841       NO       
     PLATE-1.10656          43.3045       NO       
     PLATE-1.10657          44.3323       NO       
     PLATE-1.10671          44.8633       NO       
     PLATE-1.10672          44.4483       NO       
     PLATE-1.10673          44.4115       NO       
     PLATE-1.10674          44.5038       NO       
     PLATE-1.10746          44.1119       NO       
     PLATE-1.10747          43.2723       NO       
     PLATE-1.10748          42.8318       NO       
     PLATE-1.10749          42.7885       NO       
     PLATE-1.10750          42.8474       NO       
     PLATE-1.10751          43.3487       NO       
     PLATE-1.10752          44.3509       NO       
     PLATE-1.10765          44.6379       NO       
     PLATE-1.10766          43.8111       NO       
     PLATE-1.10767          43.3957       NO       
     PLATE-1.10768          43.3598       NO       
     PLATE-1.10769          43.4603       NO       
     PLATE-1.10770          44.0177       NO       
     PLATE-1.10784          44.5334       NO       
     PLATE-1.10785           43.703       NO       
     PLATE-1.10786          43.2812       NO       
     PLATE-1.10787          43.2437       NO       
     PLATE-1.10788          43.3345       NO       
     PLATE-1.10789          43.8804       NO       
     PLATE-1.10790          44.9418       NO       
     PLATE-1.10803          44.3747       NO       
     PLATE-1.10804          43.5416       NO       
     PLATE-1.10805          43.1119       NO       
     PLATE-1.10806           43.072       NO       
     PLATE-1.10807          43.1501       NO       
     PLATE-1.10808          43.6777       NO       
     PLATE-1.10809          44.7151       NO       
     PLATE-1.10822          44.3373       NO       
     PLATE-1.10823           43.504       NO       
     PLATE-1.10824           43.072       NO       
     PLATE-1.10825          43.0311       NO       
     PLATE-1.10826          43.1037       NO       
     PLATE-1.10827          43.6223       NO       
     PLATE-1.10828          44.6474       NO       
     PLATE-1.10841          44.6179       NO       
     PLATE-1.10842          43.7895       NO       
     PLATE-1.10843          43.3607       NO       
     PLATE-1.10844          43.3205       NO       
     PLATE-1.10845          43.3956       NO       
     PLATE-1.10846          43.9173       NO       
     PLATE-1.10847          44.9445       NO       
     PLATE-1.10862          44.7608       NO       
     PLATE-1.10863          44.7239       NO       
     PLATE-1.10864           44.814       NO       
     PLATE-1.10937          44.3588       NO       
     PLATE-1.10938          43.9386       NO       
     PLATE-1.10939          43.9006       NO       
     PLATE-1.10940          43.9858       NO       
     PLATE-1.10941          44.5196       NO       
     PLATE-1.10956          44.9346       NO       
     PLATE-1.10957          44.5414       NO       
     PLATE-1.10958          44.5112       NO       
     PLATE-1.10959          44.6403       NO       
     PLATE-1.10975          44.7449       NO       
     PLATE-1.10976          44.3407       NO       
     PLATE-1.10977          44.3075       NO       
     PLATE-1.10978          44.4205       NO       
     PLATE-1.10979          44.9929       NO       
     PLATE-1.10994          44.4849       NO       
     PLATE-1.10995          44.0675       NO       
     PLATE-1.10996          44.0307       NO       
     PLATE-1.10997          44.1234       NO       
     PLATE-1.10998          44.6685       NO       
     PLATE-1.11013          44.3546       NO       
     PLATE-1.11014           43.931       NO       
     PLATE-1.11015          43.8921       NO       
     PLATE-1.11016          43.9732       NO       
     PLATE-1.11017          44.5015       NO       
     PLATE-1.11032          44.5255       NO       
     PLATE-1.11033          44.1026       NO       
     PLATE-1.11034          44.0635       NO       
     PLATE-1.11035           44.143       NO       
     PLATE-1.11036          44.6686       NO       
     PLATE-1.11128           44.921       NO       
     PLATE-1.11129          44.8862       NO       
     PLATE-1.11130           44.987       NO       
     PLATE-1.11186          44.9788       NO       
     PLATE-1.11204           44.827       NO       
     PLATE-1.11205          44.7901       NO       
     PLATE-1.11206          44.8806       NO       
     PLATE-1.11223          44.9404       NO       
     PLATE-1.11224          44.9031       NO       
     PLATE-1.11225          44.9895       NO       
     PLATE-1.16256          43.4921       NO       
     PLATE-1.16257          41.2071       NO       
     PLATE-1.16258          39.6556       NO       
     PLATE-1.16259           38.745       NO       
     PLATE-1.16260           38.429       NO       
     PLATE-1.16261          38.4371       NO       
     PLATE-1.16262          38.8522       NO       
     PLATE-1.16263          39.9213       NO       
     PLATE-1.16264          41.7665       NO       
     PLATE-1.16265          44.5935       NO       
     PLATE-1.16277           43.855       NO       
     PLATE-1.16278          43.0334       NO       
     PLATE-1.16279           42.809       NO       
     PLATE-1.16280          42.8397       NO       
     PLATE-1.16281          43.3653       NO       
     PLATE-1.16282          44.5672       NO       
     PLATE-1.16443           41.839       NO       
     PLATE-1.16444          36.8163       NO       
     PLATE-1.16445          33.1209       NO       
     PLATE-1.16446          30.4963       NO       
     PLATE-1.16447          28.6739       NO       
     PLATE-1.16448          27.4961       NO       
     PLATE-1.16449          26.8631       NO       
     PLATE-1.16450           26.722       NO       
     PLATE-1.16451          26.7569       NO       
     PLATE-1.16452          27.2294       NO       
     PLATE-1.16453          28.2733       NO       
     PLATE-1.16454          30.0375       NO       
     PLATE-1.16455          32.7965       NO       
     PLATE-1.16456          37.0603       NO       
     PLATE-1.16457           43.739       NO       
     PLATE-1.16463          41.8446       NO       
     PLATE-1.16464          38.1983       NO       
     PLATE-1.16465          35.5282       NO       
     PLATE-1.16466          33.6436       NO       
     PLATE-1.16467          32.4166       NO       
     PLATE-1.16468          31.7687       NO       
     PLATE-1.16469          31.6605       NO       
     PLATE-1.16470          31.7103       NO       
     PLATE-1.16471          32.2834       NO       
     PLATE-1.16472          33.4937       NO       
     PLATE-1.16473          35.4995       NO       
     PLATE-1.16474           38.575       NO       
     PLATE-1.16475          43.1904       NO       
     PLATE-1.16483          41.6012       NO       
     PLATE-1.16484          39.0151       NO       
     PLATE-1.16485          37.1715       NO       
     PLATE-1.16486            35.98       NO       
     PLATE-1.16487          35.3762       NO       
     PLATE-1.16488           35.315       NO       
     PLATE-1.16489          35.4011       NO       
     PLATE-1.16490          36.0748       NO       
     PLATE-1.16491           37.423       NO       
     PLATE-1.16492          39.6062       NO       
     PLATE-1.16493          42.8921       NO       
     PLATE-1.16502          44.4651       NO       
     PLATE-1.16503           42.034       NO       
     PLATE-1.16504          40.2872       NO       
     PLATE-1.16505          39.1769       NO       
     PLATE-1.16506          38.6479       NO       
     PLATE-1.16507           38.605       NO       
     PLATE-1.16508          38.7719       NO       
     PLATE-1.16509          39.5418       NO       
     PLATE-1.16510          41.0034       NO       
     PLATE-1.16511          43.3128       NO       
     PLATE-1.16523          43.5918       NO       
     PLATE-1.16524          42.6026       NO       
     PLATE-1.16525           42.177       NO       
     PLATE-1.16526          42.1571       NO       
     PLATE-1.16527          42.4202       NO       
     PLATE-1.16528           43.286       NO       
     PLATE-1.16529           44.843       NO       
     PLATE-1.16555          44.7943       NO       
     PLATE-1.16574          43.9879       NO       
     PLATE-1.16593          43.4419       NO       
     PLATE-1.16612          42.9252       NO       
     PLATE-1.16632          43.1735       NO       
     PLATE-1.16633          36.0173       NO       
     PLATE-1.16634          31.3658       NO       
     PLATE-1.16635          28.1791       NO       
     PLATE-1.16636          25.9687       NO       
     PLATE-1.16637          24.4505       NO       
     PLATE-1.16638           23.466       NO       
     PLATE-1.16639          22.9487       NO       
     PLATE-1.16640          22.8553       NO       
     PLATE-1.16641          22.8923       NO       
     PLATE-1.16642           23.329       NO       
     PLATE-1.16643          24.2662       NO       
     PLATE-1.16644          25.8413       NO       
     PLATE-1.16645          28.3114       NO       
     PLATE-1.16646          32.1428       NO       
     PLATE-1.16647           38.199       NO       
     PLATE-1.16652          37.8476       NO       
     PLATE-1.16653          33.0742       NO       
     PLATE-1.16654          29.8048       NO       
     PLATE-1.16655          27.5413       NO       
     PLATE-1.16656          25.9814       NO       
     PLATE-1.16657          25.0009       NO       
     PLATE-1.16658          24.5127       NO       
     PLATE-1.16659          24.4648       NO       
     PLATE-1.16660           24.534       NO       
     PLATE-1.16661          25.0782       NO       
     PLATE-1.16662          26.1781       NO       
     PLATE-1.16663          27.9922       NO       
     PLATE-1.16664          30.8112       NO       
     PLATE-1.16665          35.1618       NO       
     PLATE-1.16666           41.987       NO       
     PLATE-1.16671          39.1121       NO       
     PLATE-1.16672          34.3946       NO       
     PLATE-1.16673          31.1548       NO       
     PLATE-1.16674          28.8963       NO       
     PLATE-1.16675          27.3532       NO       
     PLATE-1.16676             26.4       NO       
     PLATE-1.16677           25.948       NO       
     PLATE-1.16678          25.9111       NO       
     PLATE-1.16679           26.038       NO       
     PLATE-1.16680          26.6645       NO       
     PLATE-1.16681          27.8786       NO       
     PLATE-1.16682          29.8495       NO       
     PLATE-1.16683          32.8856       NO       
     PLATE-1.16684          37.5268       NO       
     PLATE-1.16685          44.7032       NO       
     PLATE-1.16690          40.6724       NO       
     PLATE-1.16691          36.1223       NO       
     PLATE-1.16692          32.9701       NO       
     PLATE-1.16693          30.7454       NO       
     PLATE-1.16694          29.2396       NO       
     PLATE-1.16695          28.3203       NO       
     PLATE-1.16696          27.9077       NO       
     PLATE-1.16697          27.8818       NO       
     PLATE-1.16698          28.0651       NO       
     PLATE-1.16699          28.7681       NO       
     PLATE-1.16700          30.0843       NO       
     PLATE-1.16701          32.1881       NO       
     PLATE-1.16702          35.3856       NO       
     PLATE-1.16703          40.2056       NO       
     PLATE-1.16709          42.6771       NO       
     PLATE-1.16710          38.4075       NO       
     PLATE-1.16711          35.4117       NO       
     PLATE-1.16712          33.2702       NO       
     PLATE-1.16713          31.8277       NO       
     PLATE-1.16714          30.9613       NO       
     PLATE-1.16715          30.6062       NO       
     PLATE-1.16716          30.5952       NO       
     PLATE-1.16717          30.8505       NO       
     PLATE-1.16718          31.6454       NO       
     PLATE-1.16719          33.0776       NO       
     PLATE-1.16720          35.3204       NO       
     PLATE-1.16721          38.6718       NO       
     PLATE-1.16722          43.6213       NO       
     PLATE-1.16729          41.2078       NO       
     PLATE-1.16730          38.4701       NO       
     PLATE-1.16731          36.4901       NO       
     PLATE-1.16732          35.1668       NO       
     PLATE-1.16733          34.3984       NO       
     PLATE-1.16734          34.1388       NO       
     PLATE-1.16735          34.1497       NO       
     PLATE-1.16736          34.5114       NO       
     PLATE-1.16737          35.4293       NO       
     PLATE-1.16738          37.0025       NO       
     PLATE-1.16739          39.4003       NO       
     PLATE-1.16740          42.8977       NO       
     PLATE-1.16748          44.4429       NO       
     PLATE-1.16749          42.0945       NO       
     PLATE-1.16750          40.3923       NO       
     PLATE-1.16751          39.2779       NO       
     PLATE-1.16752           38.682       NO       
     PLATE-1.16753          38.5785       NO       
     PLATE-1.16754          38.6236       NO       
     PLATE-1.16755          39.1388       NO       
     PLATE-1.16756          40.2164       NO       
     PLATE-1.16757          41.9524       NO       
     PLATE-1.16758           44.505       NO       
     PLATE-1.16769          44.8985       NO       
     PLATE-1.16770          44.1063       NO       
     PLATE-1.16771          43.7757       NO       
     PLATE-1.16772           43.764       NO       
     PLATE-1.16773           43.997       NO       
     PLATE-1.16774          44.7189       NO       
     PLATE-1.16843          37.6978       NO       
     PLATE-1.16844          32.4343       NO       
     PLATE-1.16845          28.8962       NO       
     PLATE-1.16846          26.4432       NO       
     PLATE-1.16847          24.7846       NO       
     PLATE-1.16848          23.7089       NO       
     PLATE-1.16849          23.1062       NO       
     PLATE-1.16850          22.9278       NO       
     PLATE-1.16851           22.947       NO       
     PLATE-1.16852           23.289       NO       
     PLATE-1.16853          24.1141       NO       
     PLATE-1.16854          25.5437       NO       
     PLATE-1.16855          27.8069       NO       
     PLATE-1.16856          31.3208       NO       
     PLATE-1.16857          36.9171       NO       
     PLATE-1.16862           39.456       NO       
     PLATE-1.16863          34.2236       NO       
     PLATE-1.16864          30.6594       NO       
     PLATE-1.16865          28.1717       NO       
     PLATE-1.16866          26.4938       NO       
     PLATE-1.16867          25.4207       NO       
     PLATE-1.16868          24.8459       NO       
     PLATE-1.16869          24.7259       NO       
     PLATE-1.16870           24.763       NO       
     PLATE-1.16871            25.21       NO       
     PLATE-1.16872          26.1936       NO       
     PLATE-1.16873          27.8569       NO       
     PLATE-1.16874          30.4707       NO       
     PLATE-1.16875          34.5373       NO       
     PLATE-1.16876          41.0016       NO       
     PLATE-1.16881          40.2956       NO       
     PLATE-1.16882          35.2369       NO       
     PLATE-1.16883          31.7588       NO       
     PLATE-1.16884          29.3336       NO       
     PLATE-1.16885          27.6979       NO       
     PLATE-1.16886          26.6648       NO       
     PLATE-1.16887          26.1377       NO       
     PLATE-1.16888          26.0788       NO       
     PLATE-1.16889          26.1321       NO       
     PLATE-1.16890          26.6697       NO       
     PLATE-1.16891          27.7768       NO       
     PLATE-1.16892          29.6112       NO       
     PLATE-1.16893          32.4705       NO       
     PLATE-1.16894          36.8954       NO       
     PLATE-1.16895          43.8476       NO       
     PLATE-1.16900          41.6923       NO       
     PLATE-1.16901           36.863       NO       
     PLATE-1.16902          33.4987       NO       
     PLATE-1.16903           31.146       NO       
     PLATE-1.16904          29.5562       NO       
     PLATE-1.16905          28.5638       NO       
     PLATE-1.16906          28.0839       NO       
     PLATE-1.16907           28.044       NO       
     PLATE-1.16908          28.1574       NO       
     PLATE-1.16909          28.7841       NO       
     PLATE-1.16910          30.0112       NO       
     PLATE-1.16911          32.0075       NO       
     PLATE-1.16912          35.0809       NO       
     PLATE-1.16913          39.7757       NO       
     PLATE-1.16919          43.7728       NO       
     PLATE-1.16920          39.2555       NO       
     PLATE-1.16921          36.0579       NO       
     PLATE-1.16922          33.8057       NO       
     PLATE-1.16923          32.2818       NO       
     PLATE-1.16924          31.3453       NO       
     PLATE-1.16925          30.9261       NO       
     PLATE-1.16926          30.9018       NO       
     PLATE-1.16927          31.0957       NO       
     PLATE-1.16928          31.8278       NO       
     PLATE-1.16929          33.1898       NO       
     PLATE-1.16930          35.3569       NO       
     PLATE-1.16931          38.6322       NO       
     PLATE-1.16932          43.5368       NO       
     PLATE-1.16939           42.342       NO       
     PLATE-1.16940          39.4109       NO       
     PLATE-1.16941          37.3313       NO       
     PLATE-1.16942          35.9278       NO       
     PLATE-1.16943          35.0904       NO       
     PLATE-1.16944          34.7689       NO       
     PLATE-1.16945          34.7676       NO       
     PLATE-1.16946           35.072       NO       
     PLATE-1.16947           35.935       NO       
     PLATE-1.16948          37.4521       NO       
     PLATE-1.16949          39.7925       NO       
     PLATE-1.16950          43.2433       NO       
     PLATE-1.16959          43.5204       NO       
     PLATE-1.16960          41.7317       NO       
     PLATE-1.16961          40.5457       NO       
     PLATE-1.16962          39.8848       NO       
     PLATE-1.16963          39.7214       NO       
     PLATE-1.16964          39.7548       NO       
     PLATE-1.16965           40.214       NO       
     PLATE-1.16966          41.2359       NO       
     PLATE-1.16967           42.914       NO       
     PLATE-1.17050          44.1248       NO       
     PLATE-1.17057          44.2098       NO       
     PLATE-1.17058          42.0644       NO       
     PLATE-1.17059          40.1474       NO       
     PLATE-1.17060          35.2721       NO       
     PLATE-1.17066          41.1132       NO       
     PLATE-1.17067          37.8457       NO       
     PLATE-1.17068           35.884       NO       
     PLATE-1.17069          34.2689       NO       
     PLATE-1.17070          30.1918       NO       
     PLATE-1.17075          41.2541       NO       
     PLATE-1.17076          36.7813       NO       
     PLATE-1.17077          33.7139       NO       
     PLATE-1.17078          31.9413       NO       
     PLATE-1.17079          30.5747       NO       
     PLATE-1.17080          27.0556       NO       
     PLATE-1.17084           43.848       NO       
     PLATE-1.17085           38.166       NO       
     PLATE-1.17086          33.8827       NO       
     PLATE-1.17087          31.0014       NO       
     PLATE-1.17088           29.387       NO       
     PLATE-1.17089          28.2043       NO       
     PLATE-1.17090          25.0659       NO       
     PLATE-1.17094          41.6031       NO       
     PLATE-1.17095          36.0888       NO       
     PLATE-1.17096          31.9809       NO       
     PLATE-1.17097          29.2553       NO       
     PLATE-1.17098          27.7645       NO       
     PLATE-1.17099          26.7172       NO       
     PLATE-1.17100          23.8377       NO       
     PLATE-1.17104          40.1255       NO       
     PLATE-1.17105          34.7791       NO       
     PLATE-1.17106          30.8205       NO       
     PLATE-1.17107          28.2179       NO       
     PLATE-1.17108          26.8235       NO       
     PLATE-1.17109          25.8768       NO       
     PLATE-1.17110          23.1715       NO       
     PLATE-1.17114          39.2773       NO       
     PLATE-1.17115          34.0907       NO       
     PLATE-1.17116          30.2562       NO       
     PLATE-1.17117          27.7478       NO       
     PLATE-1.17118          26.4293       NO       
     PLATE-1.17119          25.5604       NO       
     PLATE-1.17120           22.966       NO       
     PLATE-1.17124            38.98       NO       
     PLATE-1.17125          33.9427       NO       
     PLATE-1.17126          30.2006       NO       
     PLATE-1.17127          27.7103       NO       
     PLATE-1.17128          26.4071       NO       
     PLATE-1.17129          25.5527       NO       
     PLATE-1.17130           22.976       NO       
     PLATE-1.17134          38.9826       NO       
     PLATE-1.17135          33.9786       NO       
     PLATE-1.17136          30.2671       NO       
     PLATE-1.17137          27.8485       NO       
     PLATE-1.17138           26.604       NO       
     PLATE-1.17139          25.8077       NO       
     PLATE-1.17140           23.284       NO       
     PLATE-1.17144          39.3063       NO       
     PLATE-1.17145          34.4537       NO       
     PLATE-1.17146            30.83       NO       
     PLATE-1.17147          28.4708       NO       
     PLATE-1.17148          27.2785       NO       
     PLATE-1.17149          26.5328       NO       
     PLATE-1.17150          24.0233       NO       
     PLATE-1.17154          40.1366       NO       
     PLATE-1.17155          35.4552       NO       
     PLATE-1.17156          31.9212       NO       
     PLATE-1.17157          29.6205       NO       
     PLATE-1.17158          28.4815       NO       
     PLATE-1.17159          27.7851       NO       
     PLATE-1.17160          25.2559       NO       
     PLATE-1.17164          41.5095       NO       
     PLATE-1.17165          37.0428       NO       
     PLATE-1.17166          33.6224       NO       
     PLATE-1.17167          31.3942       NO       
     PLATE-1.17168          30.3231       NO       
     PLATE-1.17169          29.6861       NO       
     PLATE-1.17170          27.1065       NO       
     PLATE-1.17174           43.514       NO       
     PLATE-1.17175          39.3449       NO       
     PLATE-1.17176          36.0959       NO       
     PLATE-1.17177          33.9816       NO       
     PLATE-1.17178          33.0181       NO       
     PLATE-1.17179            32.47       NO       
     PLATE-1.17180          29.8134       NO       
     PLATE-1.17185          42.6274       NO       
     PLATE-1.17186          39.6555       NO       
     PLATE-1.17187          37.7352       NO       
     PLATE-1.17188          36.9231       NO       
     PLATE-1.17189           36.472       NO       
     PLATE-1.17190          33.7809       NO       
     PLATE-1.17196          44.7325       NO       
     PLATE-1.17197          43.1602       NO       
     PLATE-1.17198           42.585       NO       
     PLATE-1.17199          42.2647       NO       
     PLATE-1.17200          39.6333       NO       
     PLATE-1.17231          44.3063       NO       
     PLATE-1.17236          42.6628       NO       
     PLATE-1.17241          41.2603       NO       
     PLATE-1.17246          40.0221       NO       
     PLATE-1.17251          38.9426       NO       
     PLATE-1.17256          38.0851       NO       
     PLATE-1.17261          37.5452       NO       
     PLATE-1.17266          36.9073       NO       
     PLATE-1.17311          36.8766       NO       
     PLATE-1.17312          37.2663       NO       
     PLATE-1.17313           37.755       NO       
     PLATE-1.17314          38.5984       NO       
     PLATE-1.17315          39.6645       NO       
     PLATE-1.17316           40.865       NO       
     PLATE-1.17317          42.1921       NO       
     PLATE-1.17318          43.7192       NO       
     PLATE-1.17423          40.3711       NO       
     PLATE-1.17456          44.4347       NO       
     PLATE-1.17457          36.4043       NO       
     PLATE-1.17490          41.2862       NO       
     PLATE-1.17491          33.8102       NO       
     PLATE-1.17523          44.0197       NO       
     PLATE-1.17524          39.1279       NO       
     PLATE-1.17525          32.1649       NO       
     PLATE-1.17556          44.8992       NO       
     PLATE-1.17557          42.0286       NO       
     PLATE-1.17558          37.6676       NO       
     PLATE-1.17559          31.2352       NO       
     PLATE-1.17589           44.885       NO       
     PLATE-1.17590          43.3294       NO       
     PLATE-1.17591          40.7013       NO       
     PLATE-1.17592          36.7407       NO       
     PLATE-1.17593          30.8921       NO       
     PLATE-1.17622          44.8043       NO       
     PLATE-1.17623          43.8284       NO       
     PLATE-1.17624          42.3501       NO       
     PLATE-1.17625          39.9072       NO       
     PLATE-1.17626           36.249       NO       
     PLATE-1.17627          30.8865       NO       
     PLATE-1.17656          44.2462       NO       
     PLATE-1.17657          43.2857       NO       
     PLATE-1.17658          41.8677       NO       
     PLATE-1.17659          39.5663       NO       
     PLATE-1.17660          36.1347       NO       
     PLATE-1.17661          31.1896       NO       
     PLATE-1.17690          44.1419       NO       
     PLATE-1.17691          43.1959       NO       
     PLATE-1.17692          41.8204       NO       
     PLATE-1.17693          39.5458       NO       
     PLATE-1.17694          36.1566       NO       
     PLATE-1.17695          32.0223       NO       
     PLATE-1.17724          44.1766       NO       
     PLATE-1.17725          43.2332       NO       
     PLATE-1.17726          41.8719       NO       
     PLATE-1.17727          39.6961       NO       
     PLATE-1.17728          36.4622       NO       
     PLATE-1.17729          33.4382       NO       
     PLATE-1.17758          44.5831       NO       
     PLATE-1.17759          43.6524       NO       
     PLATE-1.17760          42.3259       NO       
     PLATE-1.17761          40.2227       NO       
     PLATE-1.17762          37.0981       NO       
     PLATE-1.17763          35.5523       NO       
     PLATE-1.17793          44.4724       NO       
     PLATE-1.17794          43.1742       NO       
     PLATE-1.17795          41.1237       NO       
     PLATE-1.17796          38.0713       NO       
     PLATE-1.17797          38.5831       NO       
     PLATE-1.17828          44.4194       NO       
     PLATE-1.17829          42.4095       NO       
     PLATE-1.17830          39.4029       NO       
     PLATE-1.17831          42.8719       NO       
     PLATE-1.17863          44.1088       NO       
     PLATE-1.17864          41.1283       NO       
     PLATE-1.17898          43.3011       NO       
     PLATE-1.18069          43.5647       NO       
     PLATE-1.18103          39.2488       NO       
     PLATE-1.18136          44.7898       NO       
     PLATE-1.18137          36.3714       NO       
     PLATE-1.18170          42.1039       NO       
     PLATE-1.18171          34.5103       NO       
     PLATE-1.18203          43.0755       NO       
     PLATE-1.18204          40.2573       NO       
     PLATE-1.18205          33.4184       NO       
     PLATE-1.18236          43.8912       NO       
     PLATE-1.18237          41.6276       NO       
     PLATE-1.18238          39.0445       NO       
     PLATE-1.18239          32.9562       NO       
     PLATE-1.18269          44.4126       NO       
     PLATE-1.18270          42.8586       NO       
     PLATE-1.18271          40.7439       NO       
     PLATE-1.18272          38.3404       NO       
     PLATE-1.18273          32.9287       NO       
     PLATE-1.18302          44.9208       NO       
     PLATE-1.18303          43.8222       NO       
     PLATE-1.18304          42.3355       NO       
     PLATE-1.18305          40.3351       NO       
     PLATE-1.18306          38.0675       NO       
     PLATE-1.18307          33.1493       NO       
     PLATE-1.18336          44.7703       NO       
     PLATE-1.18337          43.6958       NO       
     PLATE-1.18338          42.2614       NO       
     PLATE-1.18339          40.3018       NO       
     PLATE-1.18340          38.0598       NO       
     PLATE-1.18341            33.92       NO       
     PLATE-1.18370           44.796       NO       
     PLATE-1.18371          43.7263       NO       
     PLATE-1.18372          42.3021       NO       
     PLATE-1.18373          40.4054       NO       
     PLATE-1.18374          38.2576       NO       
     PLATE-1.18375          35.2875       NO       
     PLATE-1.18405          44.1206       NO       
     PLATE-1.18406          42.7352       NO       
     PLATE-1.18407          40.8988       NO       
     PLATE-1.18408          38.8187       NO       
     PLATE-1.18409          37.3586       NO       
     PLATE-1.18439          44.9258       NO       
     PLATE-1.18440          43.5707       NO       
     PLATE-1.18441           41.779       NO       
     PLATE-1.18442          39.7447       NO       
     PLATE-1.18443          40.3358       NO       
     PLATE-1.18474          44.8202       NO       
     PLATE-1.18475          43.0595       NO       
     PLATE-1.18476          41.0537       NO       
     PLATE-1.18477          44.4822       NO       
     PLATE-1.18509          44.7721       NO       
     PLATE-1.18510          42.7795       NO       
     PLATE-1.18544          44.9748       NO       
     PLATE-1.18749          42.9732       NO       
     PLATE-1.18783          39.8733       NO       
     PLATE-1.18816          44.0656       NO       
     PLATE-1.18817          37.8233       NO       
     PLATE-1.18849           43.838       NO       
     PLATE-1.18850          41.9586       NO       
     PLATE-1.18851          36.5818       NO       
     PLATE-1.18882          43.9404       NO       
     PLATE-1.18883           42.302       NO       
     PLATE-1.18884          40.5494       NO       
     PLATE-1.18885          36.0014       NO       
     PLATE-1.18915          44.1876       NO       
     PLATE-1.18916          42.9029       NO       
     PLATE-1.18917          41.3517       NO       
     PLATE-1.18918          39.6987       NO       
     PLATE-1.18919           35.951       NO       
     PLATE-1.18948          44.6506       NO       
     PLATE-1.18949          43.6178       NO       
     PLATE-1.18950          42.3766       NO       
     PLATE-1.18951          40.8922       NO       
     PLATE-1.18952          39.3167       NO       
     PLATE-1.18953          36.0858       NO       
     PLATE-1.18982          44.5206       NO       
     PLATE-1.18983          43.5063       NO       
     PLATE-1.18984          42.2998       NO       
     PLATE-1.18985          40.8494       NO       
     PLATE-1.18986          39.2885       NO       
     PLATE-1.18987          36.7861       NO       
     PLATE-1.19016            44.55       NO       
     PLATE-1.19017          43.5397       NO       
     PLATE-1.19018          42.3401       NO       
     PLATE-1.19019           40.918       NO       
     PLATE-1.19020          39.4114       NO       
     PLATE-1.19021          38.0859       NO       
     PLATE-1.19050          44.9372       NO       
     PLATE-1.19051          43.9441       NO       
     PLATE-1.19052           42.771       NO       
     PLATE-1.19053          41.3863       NO       
     PLATE-1.19054          39.9198       NO       
     PLATE-1.19055          40.0739       NO       
     PLATE-1.19085          44.7568       NO       
     PLATE-1.19086          43.6064       NO       
     PLATE-1.19087            42.25       NO       
     PLATE-1.19088          40.8118       NO       
     PLATE-1.19089          42.9156       NO       
     PLATE-1.19120          44.8582       NO       
     PLATE-1.19121          43.5224       NO       
     PLATE-1.19122          42.1021       NO       
     PLATE-1.19156          43.8247       NO       
     PLATE-1.19429          43.6024       NO       
     PLATE-1.19463           41.425       NO       
     PLATE-1.19495          44.3106       NO       
     PLATE-1.19496          42.9639       NO       
     PLATE-1.19497           40.063       NO       
     PLATE-1.19527          44.9306       NO       
     PLATE-1.19528          43.8807       NO       
     PLATE-1.19529          42.7222       NO       
     PLATE-1.19530          41.4391       NO       
     PLATE-1.19531          39.3788       NO       
     PLATE-1.19560          44.8306       NO       
     PLATE-1.19561           43.875       NO       
     PLATE-1.19562          42.8493       NO       
     PLATE-1.19563          41.7303       NO       
     PLATE-1.19564          40.4997       NO       
     PLATE-1.19565          39.2928       NO       
     PLATE-1.19594          44.2738       NO       
     PLATE-1.19595          43.3312       NO       
     PLATE-1.19596          42.3284       NO       
     PLATE-1.19597          41.2408       NO       
     PLATE-1.19598          40.0517       NO       
     PLATE-1.19599          39.3503       NO       
     PLATE-1.19628          44.1695       NO       
     PLATE-1.19629          43.2398       NO       
     PLATE-1.19630          42.2555       NO       
     PLATE-1.19631          41.1924       NO       
     PLATE-1.19632          40.0112       NO       
     PLATE-1.19633          39.9613       NO       
     PLATE-1.19662          44.2039       NO       
     PLATE-1.19663          43.2769       NO       
     PLATE-1.19664          42.2964       NO       
     PLATE-1.19665          41.2396       NO       
     PLATE-1.19666          40.0884       NO       
     PLATE-1.19667          41.1619       NO       
     PLATE-1.19696          44.6099       NO       
     PLATE-1.19697           43.695       NO       
     PLATE-1.19698          42.7293       NO       
     PLATE-1.19699          41.6927       NO       
     PLATE-1.19700          40.5647       NO       
     PLATE-1.19701           43.016       NO       
     PLATE-1.19731          44.5179       NO       
     PLATE-1.19732          43.5664       NO       
     PLATE-1.19733           42.546       NO       
     PLATE-1.19734          41.4348       NO       
     PLATE-1.19766          44.8184       NO       
     PLATE-1.19767          43.8124       NO       
     PLATE-1.19768          42.7134       NO       
     PLATE-1.19802          44.4321       NO       
     PLATE-1.20141           44.658       NO       
     PLATE-1.20142          43.5239       NO       
     PLATE-1.20143          43.6831       NO       
     PLATE-1.20173           44.718       NO       
     PLATE-1.20174          43.8779       NO       
     PLATE-1.20175          43.0416       NO       
     PLATE-1.20176          41.9358       NO       
     PLATE-1.20177          42.9036       NO       
     PLATE-1.20206          44.5663       NO       
     PLATE-1.20207          43.6852       NO       
     PLATE-1.20208          42.8525       NO       
     PLATE-1.20209          42.0285       NO       
     PLATE-1.20210          40.9482       NO       
     PLATE-1.20211          42.7186       NO       
[...]
                            K2:     -2.2156E-02     -2.2909E-02     -2.2915E-02     -2.2915E-02     -2.2915E-02
                            K3:       0.000           0.000           0.000           0.000           0.000    
            MERR  DIRECTION (DEG):    0.000           0.000           0.000           0.000           0.000    
                        J from Ks:   7.0861E-04      7.5754E-04      7.5795E-04      7.5796E-04      7.5798E-04


                            K1:      1.2996E+04      1.2996E+04      1.2996E+04      1.2996E+04      1.2996E+04
                            K2:     -2.2915E-02     -2.2914E-02     -2.2916E-02     -2.2909E-02     -2.2939E-02
                            K3:       0.000           0.000           0.000           0.000           0.000    
            MERR  DIRECTION (DEG):    0.000           0.000           0.000           0.000           0.000    
                        J from Ks:   7.5798E-04      7.5798E-04      7.5798E-04      7.5798E-04      7.5798E-04


                 -33-       K1:      1.2603E+04      1.3031E+04      1.3034E+04      1.3034E+04      1.3034E+04
                            K2:     -1.8788E-02     -1.9429E-02     -1.9434E-02     -1.9434E-02     -1.9435E-02
                            K3:       0.000           0.000           0.000           0.000           0.000    
            MERR  DIRECTION (DEG):    0.000           0.000           0.000           0.000           0.000    
                        J from Ks:   7.1282E-04      7.6204E-04      7.6247E-04      7.6248E-04      7.6249E-04


                            K1:      1.3034E+04      1.3034E+04      1.3034E+04      1.3034E+04      1.3034E+04
                            K2:     -1.9435E-02     -1.9435E-02     -1.9435E-02     -1.9433E-02     -1.9383E-02
                            K3:       0.000           0.000           0.000           0.000           0.000    
            MERR  DIRECTION (DEG):    0.000           0.000           0.000           0.000           0.000    
                        J from Ks:   7.6250E-04      7.6250E-04      7.6250E-04      7.6250E-04      7.6249E-04


                 -35-       K1:      1.2647E+04      1.3077E+04      1.3080E+04      1.3080E+04      1.3080E+04
                            K2:     -1.5651E-02     -1.6180E-02     -1.6183E-02     -1.6183E-02     -1.6184E-02
                            K3:       0.000           0.000           0.000           0.000           0.000    
            MERR  DIRECTION (DEG):    0.000           0.000           0.000           0.000           0.000    
                        J from Ks:   7.1787E-04      7.6744E-04      7.6787E-04      7.6788E-04      7.6789E-04


                            K1:      1.3081E+04      1.3081E+04      1.3081E+04      1.3081E+04      1.3080E+04
                            K2:     -1.6184E-02     -1.6183E-02     -1.6186E-02     -1.6176E-02     -1.6247E-02
                            K3:       0.000           0.000           0.000           0.000           0.000    
            MERR  DIRECTION (DEG):    0.000           0.000           0.000           0.000           0.000    
                        J from Ks:   7.6790E-04      7.6790E-04      7.6790E-04      7.6789E-04      7.6789E-04


                 -36-       K1:      1.2695E+04      1.3126E+04      1.3130E+04      1.3130E+04      1.3130E+04
                            K2:     -1.2831E-02     -1.3274E-02     -1.3279E-02     -1.3279E-02     -1.3279E-02
                            K3:       0.000           0.000           0.000           0.000           0.000    
            MERR  DIRECTION (DEG):    0.000           0.000           0.000           0.000           0.000    
                        J from Ks:   7.2331E-04      7.7328E-04      7.7371E-04      7.7372E-04      7.7373E-04


                            K1:      1.3130E+04      1.3130E+04      1.3130E+04      1.3130E+04      1.3130E+04
                            K2:     -1.3279E-02     -1.3278E-02     -1.3279E-02     -1.3286E-02     -1.3184E-02
                            K3:       0.000           0.000           0.000           0.000           0.000    
            MERR  DIRECTION (DEG):    0.000           0.000           0.000           0.000           0.000    
                        J from Ks:   7.7374E-04      7.7374E-04      7.7374E-04      7.7374E-04      7.7374E-04


                 -37-       K1:      1.2752E+04      1.3185E+04      1.3189E+04      1.3189E+04      1.3189E+04
                            K2:       0.000           0.000           0.000           0.000           0.000    
                            K3:       0.000           0.000           0.000           0.000           0.000    
            MERR  DIRECTION (DEG):    0.000           0.000           0.000           0.000           0.000    
                        J from Ks:   7.2981E-04      7.8021E-04      7.8065E-04      7.8066E-04      7.8067E-04


                            K1:      1.3189E+04      1.3189E+04      1.3189E+04      1.3189E+04      1.3189E+04
                            K2:       0.000           0.000           0.000           0.000           0.000    
                            K3:       0.000           0.000           0.000           0.000           0.000    
            MERR  DIRECTION (DEG):    0.000           0.000           0.000           0.000           0.000    
                        J from Ks:   7.8068E-04      7.8068E-04      7.8068E-04      7.8068E-04      7.8067E-04


                 -38-       K1:      1.2814E+04      1.3249E+04      1.3253E+04      1.3253E+04      1.3253E+04
                            K2:       0.000           0.000           0.000           0.000           0.000    
                            K3:       0.000           0.000           0.000           0.000           0.000    
            MERR  DIRECTION (DEG):    0.000           0.000           0.000           0.000           0.000    
                        J from Ks:   7.3687E-04      7.8778E-04      7.8822E-04      7.8824E-04      7.8825E-04


                            K1:      1.3253E+04      1.3253E+04      1.3253E+04      1.3253E+04      1.3253E+04
                            K2:       0.000           0.000           0.000           0.000           0.000    
                            K3:       0.000           0.000           0.000           0.000           0.000    
            MERR  DIRECTION (DEG):    0.000           0.000           0.000           0.000           0.000    
                        J from Ks:   7.8825E-04      7.8825E-04      7.8825E-04      7.8825E-04      7.8825E-04


                 -39-       K1:      1.2884E+04      1.3322E+04      1.3326E+04      1.3326E+04      1.3326E+04
                            K2:       0.000           0.000           0.000           0.000           0.000    
                            K3:       0.000           0.000           0.000           0.000           0.000    
            MERR  DIRECTION (DEG):    0.000           0.000           0.000           0.000           0.000    
                        J from Ks:   7.4505E-04      7.9651E-04      7.9695E-04      7.9696E-04      7.9697E-04


                            K1:      1.3326E+04      1.3326E+04      1.3326E+04      1.3326E+04      1.3326E+04
                            K2:       0.000           0.000           0.000           0.000           0.000    
                            K3:       0.000           0.000           0.000           0.000           0.000    
            MERR  DIRECTION (DEG):    0.000           0.000           0.000           0.000           0.000    
                        J from Ks:   7.9697E-04      7.9698E-04      7.9698E-04      7.9698E-04      7.9697E-04


                 -40-       K1:      1.2962E+04      1.3402E+04      1.3406E+04      1.3406E+04      1.3406E+04
                            K2:       0.000           0.000           0.000           0.000           0.000    
                            K3:       0.000           0.000           0.000           0.000           0.000    
            MERR  DIRECTION (DEG):    0.000           0.000           0.000           0.000           0.000    
                        J from Ks:   7.5400E-04      8.0610E-04      8.0655E-04      8.0656E-04      8.0656E-04


                            K1:      1.3406E+04      1.3406E+04      1.3406E+04      1.3406E+04      1.3406E+04
                            K2:       0.000           0.000           0.000           0.000           0.000    
                            K3:       0.000           0.000           0.000           0.000           0.000    
            MERR  DIRECTION (DEG):    0.000           0.000           0.000           0.000           0.000    
                        J from Ks:   8.0656E-04      8.0656E-04      8.0657E-04      8.0657E-04      8.0656E-04


                 -41-       K1:      1.3045E+04      1.3488E+04      1.3492E+04      1.3492E+04      1.3492E+04
                            K2:       0.000           0.000           0.000           0.000           0.000    
                            K3:       0.000           0.000           0.000           0.000           0.000    
            MERR  DIRECTION (DEG):    0.000           0.000           0.000           0.000           0.000    
                        J from Ks:   7.6377E-04      8.1652E-04      8.1696E-04      8.1698E-04      8.1701E-04


                            K1:      1.3492E+04      1.3492E+04      1.3492E+04      1.3492E+04      1.3492E+04
                            K2:       0.000           0.000           0.000           0.000           0.000    
                            K3:       0.000           0.000           0.000           0.000           0.000    
            MERR  DIRECTION (DEG):    0.000           0.000           0.000           0.000           0.000    
                        J from Ks:   8.1702E-04      8.1702E-04      8.1701E-04      8.1701E-04      8.1700E-04


                 -42-       K1:      1.3142E+04      1.3588E+04      1.3593E+04      1.3593E+04      1.3593E+04
                            K2:       0.000           0.000           0.000           0.000           0.000    
                            K3:       0.000           0.000           0.000           0.000           0.000    
            MERR  DIRECTION (DEG):    0.000           0.000           0.000           0.000           0.000    
                        J from Ks:   7.7517E-04      8.2867E-04      8.2920E-04      8.2925E-04      8.2928E-04


                            K1:      1.3593E+04      1.3593E+04      1.3593E+04      1.3593E+04      1.3593E+04
                            K2:       0.000           0.000           0.000           0.000           0.000    
                            K3:       0.000           0.000           0.000           0.000           0.000    
            MERR  DIRECTION (DEG):    0.000           0.000           0.000           0.000           0.000    
                        J from Ks:   8.2928E-04      8.2928E-04      8.2927E-04      8.2927E-04      8.2926E-04


                 -43-       K1:      1.3213E+04      1.3662E+04      1.3665E+04      1.3665E+04      1.3665E+04
                            K2:     -1.3884E-02     -1.4356E-02     -1.4366E-02     -1.4369E-02     -1.4372E-02
                            K3:       0.000           0.000           0.000           0.000           0.000    
            MERR  DIRECTION (DEG):    0.000           0.000           0.000           0.000           0.000    
                        J from Ks:   7.8351E-04      8.3770E-04      8.3808E-04      8.3805E-04      8.3804E-04


                            K1:      1.3665E+04      1.3665E+04      1.3665E+04      1.3665E+04      1.3665E+04
                            K2:     -1.4375E-02     -1.4372E-02     -1.4364E-02     -1.4281E-02     -1.4383E-02
                            K3:       0.000           0.000           0.000           0.000           0.000    
            MERR  DIRECTION (DEG):    0.000           0.000           0.000           0.000           0.000    
                        J from Ks:   8.3804E-04      8.3805E-04      8.3805E-04      8.3806E-04      8.3806E-04


                 -44-       K1:      1.3323E+04      1.3764E+04      1.3767E+04      1.3767E+04      1.3767E+04
                            K2:     -1.5212E-02     -1.5763E-02     -1.5779E-02     -1.5784E-02     -1.5786E-02
                            K3:       0.000           0.000           0.000           0.000           0.000    
            MERR  DIRECTION (DEG):    0.000           0.000           0.000           0.000           0.000    
                        J from Ks:   7.9663E-04      8.5029E-04      8.5059E-04      8.5059E-04      8.5063E-04


                            K1:      1.3767E+04      1.3767E+04      1.3767E+04      1.3768E+04      1.3768E+04
                            K2:     -1.5789E-02     -1.5788E-02     -1.5794E-02     -1.5756E-02     -1.4688E-02
                            K3:       0.000           0.000           0.000           0.000           0.000    
            MERR  DIRECTION (DEG):    0.000           0.000           0.000           0.000           0.000    
                        J from Ks:   8.5066E-04      8.5067E-04      8.5067E-04      8.5068E-04      8.5068E-04


                 -46-       K1:      1.3181E+04      1.3639E+04      1.3644E+04      1.3645E+04      1.3645E+04
                            K2:     -1.5289E-02     -1.5769E-02     -1.5755E-02     -1.5747E-02     -1.5741E-02
                            K3:       0.000           0.000           0.000           0.000           0.000    
            MERR  DIRECTION (DEG):    0.000           0.000           0.000           0.000           0.000    
                        J from Ks:   7.7971E-04      8.3482E-04      8.3552E-04      8.3558E-04      8.3560E-04


                            K1:      1.3645E+04      1.3645E+04      1.3645E+04      1.3645E+04      1.3644E+04
                            K2:     -1.5738E-02     -1.5735E-02     -1.5756E-02     -1.5800E-02     -1.6778E-02
                            K3:       0.000           0.000           0.000           0.000           0.000    
            MERR  DIRECTION (DEG):    0.000           0.000           0.000           0.000           0.000    
                        J from Ks:   8.3559E-04      8.3558E-04      8.3556E-04      8.3555E-04      8.3553E-04


                 -47-       K1:      1.2283E+04      1.2680E+04      1.2679E+04      1.2679E+04      1.2679E+04
                            K2:     -1.8182E-02     -1.8882E-02     -1.8924E-02     -1.8940E-02     -1.8951E-02
                            K3:      1.2913E-02      1.3514E-02      1.3521E-02      1.3527E-02      1.3531E-02
            MERR  DIRECTION (DEG):    0.000           0.000           0.000           0.000           0.000    
                        J from Ks:   6.7711E-04      7.2160E-04      7.2150E-04      7.2143E-04      7.2144E-04


                            K1:      1.2679E+04      1.2679E+04      1.2679E+04      1.2680E+04      1.2680E+04
                            K2:     -1.8959E-02     -1.8958E-02     -1.8939E-02     -1.8760E-02     -1.6878E-02
                            K3:      1.3535E-02      1.3542E-02      1.3546E-02      1.3657E-02      1.3030E-02
            MERR  DIRECTION (DEG):    0.000           0.000           0.000           0.000           0.000    
                        J from Ks:   7.2147E-04      7.2149E-04      7.2152E-04      7.2154E-04      7.2156E-04




     LABELS REFERENCED IN THE ABOVE TABLE

      -13-     ASSEMBLY__PICKEDSET68-10_                                                       
      -14-     ASSEMBLY__PICKEDSET68-11_                                                       
      -15-     ASSEMBLY__PICKEDSET68-12_                                                       
      -16-     ASSEMBLY__PICKEDSET68-13_                                                       
      -17-     ASSEMBLY__PICKEDSET68-14_                                                       
      -18-     ASSEMBLY__PICKEDSET68-15_                                                       
      -19-     ASSEMBLY__PICKEDSET68-16_                                                       
      -20-     ASSEMBLY__PICKEDSET68-17_                                                       
      -21-     ASSEMBLY__PICKEDSET68-18_                                                       
      -22-     ASSEMBLY__PICKEDSET68-19_                                                       
      -23-     ASSEMBLY__PICKEDSET68-1_                                                        
      -24-     ASSEMBLY__PICKEDSET68-20_                                                       
      -25-     ASSEMBLY__PICKEDSET68-21_                                                       
      -26-     ASSEMBLY__PICKEDSET68-22_                                                       
      -27-     ASSEMBLY__PICKEDSET68-23_                                                       
      -28-     ASSEMBLY__PICKEDSET68-24_                                                       
      -29-     ASSEMBLY__PICKEDSET68-25_                                                       
      -30-     ASSEMBLY__PICKEDSET68-26_                                                       
      -31-     ASSEMBLY__PICKEDSET68-27_                                                       
      -32-     ASSEMBLY__PICKEDSET68-28_                                                       
      -33-     ASSEMBLY__PICKEDSET68-29_                                                       
      -34-     ASSEMBLY__PICKEDSET68-2_                                                        
      -35-     ASSEMBLY__PICKEDSET68-30_                                                       
      -36-     ASSEMBLY__PICKEDSET68-31_                                                       
      -37-     ASSEMBLY__PICKEDSET68-32_                                                       
      -38-     ASSEMBLY__PICKEDSET68-33_                                                       
      -39-     ASSEMBLY__PICKEDSET68-34_                                                       
      -40-     ASSEMBLY__PICKEDSET68-35_                                                       
      -41-     ASSEMBLY__PICKEDSET68-36_                                                       
      -42-     ASSEMBLY__PICKEDSET68-37_                                                       
      -43-     ASSEMBLY__PICKEDSET68-38_                                                       
      -44-     ASSEMBLY__PICKEDSET68-39_                                                       
      -45-     ASSEMBLY__PICKEDSET68-3_                                                        
      -46-     ASSEMBLY__PICKEDSET68-40_                                                       
      -47-     ASSEMBLY__PICKEDSET68-41_                                                       
      -48-     ASSEMBLY__PICKEDSET68-4_                                                        
      -49-     ASSEMBLY__PICKEDSET68-5_                                                        
      -50-     ASSEMBLY__PICKEDSET68-6_                                                        
      -51-     ASSEMBLY__PICKEDSET68-7_                                                        
      -52-     ASSEMBLY__PICKEDSET68-8_                                                        
      -53-     ASSEMBLY__PICKEDSET68-9_                                                        


          THE ANALYSIS HAS BEEN COMPLETED



                              ANALYSIS COMPLETE
                              WITH      2 WARNING MESSAGES ON THE DAT FILE



     JOB TIME SUMMARY
       USER TIME (SEC)      =   596.60    
       SYSTEM TIME (SEC)    =   12.200    
       TOTAL CPU TIME (SEC) =   608.80    
       WALLCLOCK TIME (SEC) =        181
