1

   Abaqus 3DEXPERIENCE R2019x                                  Date 02-Sep-2019   Time 21:35:51
   For use by UNIVERSITY SYSTEM OF NEW HAMPSHIRE under license from Dassault Systemes or its subsidiary.



                         The Abaqus Software is a product of:

                           Dassault Systemes SIMULIA Corp.
                           1301 Atwood Avenue, Suite 101W
                              Johnston, RI 02919, USA
 


                   The Abaqus Software is available only under license
                   from Dassault Systemes or its subsidiary and may be
                   used or reproduced only in accordance with the terms
                   of such license.
 
                          On machine node06.biomade 
                          you are authorized to run
                          Abaqus/Standard until 14-Dec-2019

                          Your site id is: 200000000057051 


 
                    For assistance or any other information you may
                    obtain contact information for your local office
                    from the world wide web at:

                      http://www.3ds.com/products/simulia/locations/

 
                * * * * * * * * * * * * * * * * * * * * * * * * * * * * * * 
                *                                                         * 
                *                   *****************                     * 
                *                   *  N O T I C E  *                     * 
                *                   *****************                     * 
                *                                                         * 
                *                                                         * 
                *               Abaqus 3DEXPERIENCE R2019x                * 
                *                                                         * 
                *          BUILD ID: 2018_09_24-14.41.51 157541           * 
                *                                                         * 
                *                                                         * 
                *  Please make sure you are using                         * 
                *  release 3DEXPERIENCE R2019x manuals                    * 
                *  plus the notes accompanying this release.              * 
                *                                                         * 
                *                                                         * 
                *                                                         * 
                *                                                         * 
                *                                                         * 
                *   This program may not be used for commercial purposes  * 
                *           without payment of a commercial fee.          * 
                *                                                         * 
                * * * * * * * * * * * * * * * * * * * * * * * * * * * * * * 


 



     PROCESSING PART, INSTANCE, AND ASSEMBLY INFORMATION
   *******************************************************


     END PROCESSING PART, INSTANCE, AND ASSEMBLY INFORMATION
   ***********************************************************

  *contourintegral, crackname=J_CRACK-1, contours=20, cracktipnodes, symm



     OPTIONS BEING PROCESSED
   ***************************


  *Heading
  *Node
  *Nset, nset=ASSEMBLY_INDENTOR-1_INDENTOR-1-REFPT_
  *Node
  *Element, type=C3D20
  *Nset, nset=ASSEMBLY_SPECIMEN-1_SET-0
  *Nset, nset=ASSEMBLY_SPECIMEN-1_SET-1
  *Nset, nset=ASSEMBLY_SPECIMEN-1_SET-10
  *Nset, nset=ASSEMBLY_SPECIMEN-1_SET-100
  *Nset, nset=ASSEMBLY_SPECIMEN-1_SET-101
  *Nset, nset=ASSEMBLY_SPECIMEN-1_SET-102
  *Nset, nset=ASSEMBLY_SPECIMEN-1_SET-103
  *Nset, nset=ASSEMBLY_SPECIMEN-1_SET-104
  *Nset, nset=ASSEMBLY_SPECIMEN-1_SET-105
  *Nset, nset=ASSEMBLY_SPECIMEN-1_SET-106
  *Nset, nset=ASSEMBLY_SPECIMEN-1_SET-107
  *Nset, nset=ASSEMBLY_SPECIMEN-1_SET-108
  *Nset, nset=ASSEMBLY_SPECIMEN-1_SET-109
  *Nset, nset=ASSEMBLY_SPECIMEN-1_SET-11
  *Nset, nset=ASSEMBLY_SPECIMEN-1_SET-110
  *Nset, nset=ASSEMBLY_SPECIMEN-1_SET-111
  *Nset, nset=ASSEMBLY_SPECIMEN-1_SET-112
  *Nset, nset=ASSEMBLY_SPECIMEN-1_SET-113
  *Nset, nset=ASSEMBLY_SPECIMEN-1_SET-114
  *Nset, nset=ASSEMBLY_SPECIMEN-1_SET-115
  *Nset, nset=ASSEMBLY_SPECIMEN-1_SET-116
  *Nset, nset=ASSEMBLY_SPECIMEN-1_SET-117
  *Nset, nset=ASSEMBLY_SPECIMEN-1_SET-118
  *Nset, nset=ASSEMBLY_SPECIMEN-1_SET-119
  *Nset, nset=ASSEMBLY_SPECIMEN-1_SET-12
  *Nset, nset=ASSEMBLY_SPECIMEN-1_SET-120
  *Nset, nset=ASSEMBLY_SPECIMEN-1_SET-121
  *Nset, nset=ASSEMBLY_SPECIMEN-1_SET-122
  *Nset, nset=ASSEMBLY_SPECIMEN-1_SET-123
  *Nset, nset=ASSEMBLY_SPECIMEN-1_SET-124
  *Nset, nset=ASSEMBLY_SPECIMEN-1_SET-13
  *Nset, nset=ASSEMBLY_SPECIMEN-1_SET-14
  *Nset, nset=ASSEMBLY_SPECIMEN-1_SET-15
  *Nset, nset=ASSEMBLY_SPECIMEN-1_SET-16
  *Nset, nset=ASSEMBLY_SPECIMEN-1_SET-17
  *Nset, nset=ASSEMBLY_SPECIMEN-1_SET-18
  *Nset, nset=ASSEMBLY_SPECIMEN-1_SET-19
  *Nset, nset=ASSEMBLY_SPECIMEN-1_SET-2
  *Nset, nset=ASSEMBLY_SPECIMEN-1_SET-20
  *Nset, nset=ASSEMBLY_SPECIMEN-1_SET-21
  *Nset, nset=ASSEMBLY_SPECIMEN-1_SET-22
  *Nset, nset=ASSEMBLY_SPECIMEN-1_SET-23
  *Nset, nset=ASSEMBLY_SPECIMEN-1_SET-24
  *Nset, nset=ASSEMBLY_SPECIMEN-1_SET-25
  *Nset, nset=ASSEMBLY_SPECIMEN-1_SET-26
  *Nset, nset=ASSEMBLY_SPECIMEN-1_SET-27
  *Nset, nset=ASSEMBLY_SPECIMEN-1_SET-28
  *Nset, nset=ASSEMBLY_SPECIMEN-1_SET-29
  *Nset, nset=ASSEMBLY_SPECIMEN-1_SET-3
  *Nset, nset=ASSEMBLY_SPECIMEN-1_SET-30
  *Nset, nset=ASSEMBLY_SPECIMEN-1_SET-31
  *Nset, nset=ASSEMBLY_SPECIMEN-1_SET-32
  *Nset, nset=ASSEMBLY_SPECIMEN-1_SET-33
  *Nset, nset=ASSEMBLY_SPECIMEN-1_SET-34
  *Nset, nset=ASSEMBLY_SPECIMEN-1_SET-35
  *Nset, nset=ASSEMBLY_SPECIMEN-1_SET-36
  *Nset, nset=ASSEMBLY_SPECIMEN-1_SET-37
  *Nset, nset=ASSEMBLY_SPECIMEN-1_SET-38
  *Nset, nset=ASSEMBLY_SPECIMEN-1_SET-39
  *Nset, nset=ASSEMBLY_SPECIMEN-1_SET-4
  *Nset, nset=ASSEMBLY_SPECIMEN-1_SET-40
  *Nset, nset=ASSEMBLY_SPECIMEN-1_SET-41
  *Nset, nset=ASSEMBLY_SPECIMEN-1_SET-42
  *Nset, nset=ASSEMBLY_SPECIMEN-1_SET-43
  *Nset, nset=ASSEMBLY_SPECIMEN-1_SET-44
  *Nset, nset=ASSEMBLY_SPECIMEN-1_SET-45
  *Nset, nset=ASSEMBLY_SPECIMEN-1_SET-46
  *Nset, nset=ASSEMBLY_SPECIMEN-1_SET-47
  *Nset, nset=ASSEMBLY_SPECIMEN-1_SET-48
  *Nset, nset=ASSEMBLY_SPECIMEN-1_SET-49
  *Nset, nset=ASSEMBLY_SPECIMEN-1_SET-5
  *Nset, nset=ASSEMBLY_SPECIMEN-1_SET-50
  *Nset, nset=ASSEMBLY_SPECIMEN-1_SET-51
  *Nset, nset=ASSEMBLY_SPECIMEN-1_SET-52
  *Nset, nset=ASSEMBLY_SPECIMEN-1_SET-53
  *Nset, nset=ASSEMBLY_SPECIMEN-1_SET-54
  *Nset, nset=ASSEMBLY_SPECIMEN-1_SET-55
  *Nset, nset=ASSEMBLY_SPECIMEN-1_SET-56
  *Nset, nset=ASSEMBLY_SPECIMEN-1_SET-57
  *Nset, nset=ASSEMBLY_SPECIMEN-1_SET-58
  *Nset, nset=ASSEMBLY_SPECIMEN-1_SET-59
  *Nset, nset=ASSEMBLY_SPECIMEN-1_SET-6
  *Nset, nset=ASSEMBLY_SPECIMEN-1_SET-60
  *Nset, nset=ASSEMBLY_SPECIMEN-1_SET-61
  *Nset, nset=ASSEMBLY_SPECIMEN-1_SET-62
  *Nset, nset=ASSEMBLY_SPECIMEN-1_SET-63
  *Nset, nset=ASSEMBLY_SPECIMEN-1_SET-64
  *Nset, nset=ASSEMBLY_SPECIMEN-1_SET-65
  *Nset, nset=ASSEMBLY_SPECIMEN-1_SET-66
  *Nset, nset=ASSEMBLY_SPECIMEN-1_SET-67
  *Nset, nset=ASSEMBLY_SPECIMEN-1_SET-68
  *Nset, nset=ASSEMBLY_SPECIMEN-1_SET-69
  *Nset, nset=ASSEMBLY_SPECIMEN-1_SET-7
  *Nset, nset=ASSEMBLY_SPECIMEN-1_SET-70
  *Nset, nset=ASSEMBLY_SPECIMEN-1_SET-71
  *Nset, nset=ASSEMBLY_SPECIMEN-1_SET-72
  *Nset, nset=ASSEMBLY_SPECIMEN-1_SET-73
  *Nset, nset=ASSEMBLY_SPECIMEN-1_SET-74
  *Nset, nset=ASSEMBLY_SPECIMEN-1_SET-75
  *Nset, nset=ASSEMBLY_SPECIMEN-1_SET-76
  *Nset, nset=ASSEMBLY_SPECIMEN-1_SET-77
  *Nset, nset=ASSEMBLY_SPECIMEN-1_SET-78
  *Nset, nset=ASSEMBLY_SPECIMEN-1_SET-79
  *Nset, nset=ASSEMBLY_SPECIMEN-1_SET-8
  *Nset, nset=ASSEMBLY_SPECIMEN-1_SET-80
  *Nset, nset=ASSEMBLY_SPECIMEN-1_SET-81
  *Nset, nset=ASSEMBLY_SPECIMEN-1_SET-82
  *Nset, nset=ASSEMBLY_SPECIMEN-1_SET-83
  *Nset, nset=ASSEMBLY_SPECIMEN-1_SET-84
  *Nset, nset=ASSEMBLY_SPECIMEN-1_SET-85
  *Nset, nset=ASSEMBLY_SPECIMEN-1_SET-86
  *Nset, nset=ASSEMBLY_SPECIMEN-1_SET-87
  *Nset, nset=ASSEMBLY_SPECIMEN-1_SET-88
  *Nset, nset=ASSEMBLY_SPECIMEN-1_SET-89
  *Nset, nset=ASSEMBLY_SPECIMEN-1_SET-9
  *Nset, nset=ASSEMBLY_SPECIMEN-1_SET-90
  *Nset, nset=ASSEMBLY_SPECIMEN-1_SET-91
  *Nset, nset=ASSEMBLY_SPECIMEN-1_SET-92
  *Nset, nset=ASSEMBLY_SPECIMEN-1_SET-93
  *Nset, nset=ASSEMBLY_SPECIMEN-1_SET-94
  *Nset, nset=ASSEMBLY_SPECIMEN-1_SET-95
  *Nset, nset=ASSEMBLY_SPECIMEN-1_SET-96
  *Nset, nset=ASSEMBLY_SPECIMEN-1_SET-97
  *Nset, nset=ASSEMBLY_SPECIMEN-1_SET-98
  *Nset, nset=ASSEMBLY_SPECIMEN-1_SET-99
  *Elset, elset=ASSEMBLY_SPECIMEN-1_SET-0
  *Elset, elset=ASSEMBLY_SPECIMEN-1_SET-1
  *Elset, elset=ASSEMBLY_SPECIMEN-1_SET-10
  *Elset, elset=ASSEMBLY_SPECIMEN-1_SET-100
  *Elset, elset=ASSEMBLY_SPECIMEN-1_SET-101
  *Elset, elset=ASSEMBLY_SPECIMEN-1_SET-102
  *Elset, elset=ASSEMBLY_SPECIMEN-1_SET-103
  *Elset, elset=ASSEMBLY_SPECIMEN-1_SET-104
  *Elset, elset=ASSEMBLY_SPECIMEN-1_SET-105
  *Elset, elset=ASSEMBLY_SPECIMEN-1_SET-106
  *Elset, elset=ASSEMBLY_SPECIMEN-1_SET-107
  *Elset, elset=ASSEMBLY_SPECIMEN-1_SET-108
  *Elset, elset=ASSEMBLY_SPECIMEN-1_SET-109
  *Elset, elset=ASSEMBLY_SPECIMEN-1_SET-11
  *Elset, elset=ASSEMBLY_SPECIMEN-1_SET-110
  *Elset, elset=ASSEMBLY_SPECIMEN-1_SET-111
  *Elset, elset=ASSEMBLY_SPECIMEN-1_SET-112
  *Elset, elset=ASSEMBLY_SPECIMEN-1_SET-113
  *Elset, elset=ASSEMBLY_SPECIMEN-1_SET-114
  *Elset, elset=ASSEMBLY_SPECIMEN-1_SET-115
  *Elset, elset=ASSEMBLY_SPECIMEN-1_SET-116
  *Elset, elset=ASSEMBLY_SPECIMEN-1_SET-117
  *Elset, elset=ASSEMBLY_SPECIMEN-1_SET-118
  *Elset, elset=ASSEMBLY_SPECIMEN-1_SET-119
  *Elset, elset=ASSEMBLY_SPECIMEN-1_SET-12
  *Elset, elset=ASSEMBLY_SPECIMEN-1_SET-120
  *Elset, elset=ASSEMBLY_SPECIMEN-1_SET-121
  *Elset, elset=ASSEMBLY_SPECIMEN-1_SET-122
  *Elset, elset=ASSEMBLY_SPECIMEN-1_SET-123
  *Elset, elset=ASSEMBLY_SPECIMEN-1_SET-124
  *Elset, elset=ASSEMBLY_SPECIMEN-1_SET-13
  *Elset, elset=ASSEMBLY_SPECIMEN-1_SET-14
  *Elset, elset=ASSEMBLY_SPECIMEN-1_SET-15
  *Elset, elset=ASSEMBLY_SPECIMEN-1_SET-16
  *Elset, elset=ASSEMBLY_SPECIMEN-1_SET-17
  *Elset, elset=ASSEMBLY_SPECIMEN-1_SET-18
  *Elset, elset=ASSEMBLY_SPECIMEN-1_SET-19
  *Elset, elset=ASSEMBLY_SPECIMEN-1_SET-2
  *Elset, elset=ASSEMBLY_SPECIMEN-1_SET-20
  *Elset, elset=ASSEMBLY_SPECIMEN-1_SET-21
  *Elset, elset=ASSEMBLY_SPECIMEN-1_SET-22
  *Elset, elset=ASSEMBLY_SPECIMEN-1_SET-23
  *Elset, elset=ASSEMBLY_SPECIMEN-1_SET-24
  *Elset, elset=ASSEMBLY_SPECIMEN-1_SET-25
  *Elset, elset=ASSEMBLY_SPECIMEN-1_SET-26
  *Elset, elset=ASSEMBLY_SPECIMEN-1_SET-27
  *Elset, elset=ASSEMBLY_SPECIMEN-1_SET-28
  *Elset, elset=ASSEMBLY_SPECIMEN-1_SET-29
  *Elset, elset=ASSEMBLY_SPECIMEN-1_SET-3
  *Elset, elset=ASSEMBLY_SPECIMEN-1_SET-30
  *Elset, elset=ASSEMBLY_SPECIMEN-1_SET-31
  *Elset, elset=ASSEMBLY_SPECIMEN-1_SET-32
  *Elset, elset=ASSEMBLY_SPECIMEN-1_SET-33
  *Elset, elset=ASSEMBLY_SPECIMEN-1_SET-34
  *Elset, elset=ASSEMBLY_SPECIMEN-1_SET-35
  *Elset, elset=ASSEMBLY_SPECIMEN-1_SET-36
  *Elset, elset=ASSEMBLY_SPECIMEN-1_SET-37
  *Elset, elset=ASSEMBLY_SPECIMEN-1_SET-38
  *Elset, elset=ASSEMBLY_SPECIMEN-1_SET-39
  *Elset, elset=ASSEMBLY_SPECIMEN-1_SET-4
  *Elset, elset=ASSEMBLY_SPECIMEN-1_SET-40
  *Elset, elset=ASSEMBLY_SPECIMEN-1_SET-41
  *Elset, elset=ASSEMBLY_SPECIMEN-1_SET-42
  *Elset, elset=ASSEMBLY_SPECIMEN-1_SET-43
  *Elset, elset=ASSEMBLY_SPECIMEN-1_SET-44
  *Elset, elset=ASSEMBLY_SPECIMEN-1_SET-45
  *Elset, elset=ASSEMBLY_SPECIMEN-1_SET-46
  *Elset, elset=ASSEMBLY_SPECIMEN-1_SET-47
  *Elset, elset=ASSEMBLY_SPECIMEN-1_SET-48
  *Elset, elset=ASSEMBLY_SPECIMEN-1_SET-49
  *Elset, elset=ASSEMBLY_SPECIMEN-1_SET-5
  *Elset, elset=ASSEMBLY_SPECIMEN-1_SET-50
  *Elset, elset=ASSEMBLY_SPECIMEN-1_SET-51
  *Elset, elset=ASSEMBLY_SPECIMEN-1_SET-52
  *Elset, elset=ASSEMBLY_SPECIMEN-1_SET-53
  *Elset, elset=ASSEMBLY_SPECIMEN-1_SET-54
  *Elset, elset=ASSEMBLY_SPECIMEN-1_SET-55
  *Elset, elset=ASSEMBLY_SPECIMEN-1_SET-56
  *Elset, elset=ASSEMBLY_SPECIMEN-1_SET-57
  *Elset, elset=ASSEMBLY_SPECIMEN-1_SET-58
  *Elset, elset=ASSEMBLY_SPECIMEN-1_SET-59
  *Elset, elset=ASSEMBLY_SPECIMEN-1_SET-6
  *Elset, elset=ASSEMBLY_SPECIMEN-1_SET-60
  *Elset, elset=ASSEMBLY_SPECIMEN-1_SET-61
  *Elset, elset=ASSEMBLY_SPECIMEN-1_SET-62
  *Elset, elset=ASSEMBLY_SPECIMEN-1_SET-63
  *Elset, elset=ASSEMBLY_SPECIMEN-1_SET-64
  *Elset, elset=ASSEMBLY_SPECIMEN-1_SET-65
  *Elset, elset=ASSEMBLY_SPECIMEN-1_SET-66
  *Elset, elset=ASSEMBLY_SPECIMEN-1_SET-67
  *Elset, elset=ASSEMBLY_SPECIMEN-1_SET-68
  *Elset, elset=ASSEMBLY_SPECIMEN-1_SET-69
  *Elset, elset=ASSEMBLY_SPECIMEN-1_SET-7
  *Elset, elset=ASSEMBLY_SPECIMEN-1_SET-70
  *Elset, elset=ASSEMBLY_SPECIMEN-1_SET-71
  *Elset, elset=ASSEMBLY_SPECIMEN-1_SET-72
  *Elset, elset=ASSEMBLY_SPECIMEN-1_SET-73
  *Elset, elset=ASSEMBLY_SPECIMEN-1_SET-74
  *Elset, elset=ASSEMBLY_SPECIMEN-1_SET-75
  *Elset, elset=ASSEMBLY_SPECIMEN-1_SET-76
  *Elset, elset=ASSEMBLY_SPECIMEN-1_SET-77
  *Elset, elset=ASSEMBLY_SPECIMEN-1_SET-78
  *Elset, elset=ASSEMBLY_SPECIMEN-1_SET-79
  *Elset, elset=ASSEMBLY_SPECIMEN-1_SET-8
  *Elset, elset=ASSEMBLY_SPECIMEN-1_SET-80
  *Elset, elset=ASSEMBLY_SPECIMEN-1_SET-81
  *Elset, elset=ASSEMBLY_SPECIMEN-1_SET-82
  *Elset, elset=ASSEMBLY_SPECIMEN-1_SET-83
  *Elset, elset=ASSEMBLY_SPECIMEN-1_SET-84
  *Elset, elset=ASSEMBLY_SPECIMEN-1_SET-85
  *Elset, elset=ASSEMBLY_SPECIMEN-1_SET-86
  *Elset, elset=ASSEMBLY_SPECIMEN-1_SET-87
  *Elset, elset=ASSEMBLY_SPECIMEN-1_SET-88
  *Elset, elset=ASSEMBLY_SPECIMEN-1_SET-89
  *Elset, elset=ASSEMBLY_SPECIMEN-1_SET-9
  *Elset, elset=ASSEMBLY_SPECIMEN-1_SET-90
  *Elset, elset=ASSEMBLY_SPECIMEN-1_SET-91
  *Elset, elset=ASSEMBLY_SPECIMEN-1_SET-92
  *Elset, elset=ASSEMBLY_SPECIMEN-1_SET-93
  *Elset, elset=ASSEMBLY_SPECIMEN-1_SET-94
  *Elset, elset=ASSEMBLY_SPECIMEN-1_SET-95
  *Elset, elset=ASSEMBLY_SPECIMEN-1_SET-96
  *Elset, elset=ASSEMBLY_SPECIMEN-1_SET-97
  *Elset, elset=ASSEMBLY_SPECIMEN-1_SET-98
  *Elset, elset=ASSEMBLY_SPECIMEN-1_SET-99
  *Nset, nset="ASSEMBLY_Edge Seeds-3"
  *Nset, nset="ASSEMBLY_Edge Seeds-4"
  *Nset, nset=ASSEMBLY_CRACK_TIP
  *Nset, nset=ASSEMBLY_DISP
  *Nset, nset=ASSEMBLY_INNER
  *Nset, nset=ASSEMBLY_LOAD
  *Nset, nset=ASSEMBLY_SET-131
  *Nset, nset=ASSEMBLY_SET-132
  *Nset, nset=ASSEMBLY_SET-2
  *Nset, nset=ASSEMBLY_SET-7
  *Nset, nset=ASSEMBLY_XSYMM
  *Nset, nset=ASSEMBLY_ZSYMM
  *Nset, nset=ASSEMBLY__PICKEDSET172
  *Nset, nset=ASSEMBLY__PICKEDSET172-10_
  *Nset, nset=ASSEMBLY__PICKEDSET172-11_
  *Nset, nset=ASSEMBLY__PICKEDSET172-12_
  *Nset, nset=ASSEMBLY__PICKEDSET172-13_
  *Nset, nset=ASSEMBLY__PICKEDSET172-14_
  *Nset, nset=ASSEMBLY__PICKEDSET172-15_
  *Nset, nset=ASSEMBLY__PICKEDSET172-16_
  *Nset, nset=ASSEMBLY__PICKEDSET172-17_
  *Nset, nset=ASSEMBLY__PICKEDSET172-18_
  *Nset, nset=ASSEMBLY__PICKEDSET172-19_
  *Nset, nset=ASSEMBLY__PICKEDSET172-1_
  *Nset, nset=ASSEMBLY__PICKEDSET172-20_
  *Nset, nset=ASSEMBLY__PICKEDSET172-21_
  *Nset, nset=ASSEMBLY__PICKEDSET172-22_
  *Nset, nset=ASSEMBLY__PICKEDSET172-23_
  *Nset, nset=ASSEMBLY__PICKEDSET172-24_
  *Nset, nset=ASSEMBLY__PICKEDSET172-25_
  *Nset, nset=ASSEMBLY__PICKEDSET172-26_
  *Nset, nset=ASSEMBLY__PICKEDSET172-27_
  *Nset, nset=ASSEMBLY__PICKEDSET172-28_
  *Nset, nset=ASSEMBLY__PICKEDSET172-29_
  *Nset, nset=ASSEMBLY__PICKEDSET172-2_
  *Nset, nset=ASSEMBLY__PICKEDSET172-30_
  *Nset, nset=ASSEMBLY__PICKEDSET172-31_
  *Nset, nset=ASSEMBLY__PICKEDSET172-32_
  *Nset, nset=ASSEMBLY__PICKEDSET172-33_
  *Nset, nset=ASSEMBLY__PICKEDSET172-34_
  *Nset, nset=ASSEMBLY__PICKEDSET172-35_
  *Nset, nset=ASSEMBLY__PICKEDSET172-36_
  *Nset, nset=ASSEMBLY__PICKEDSET172-37_
  *Nset, nset=ASSEMBLY__PICKEDSET172-38_
  *Nset, nset=ASSEMBLY__PICKEDSET172-39_
  *Nset, nset=ASSEMBLY__PICKEDSET172-3_
  *Nset, nset=ASSEMBLY__PICKEDSET172-40_
  *Nset, nset=ASSEMBLY__PICKEDSET172-41_
  *Nset, nset=ASSEMBLY__PICKEDSET172-42_
  *Nset, nset=ASSEMBLY__PICKEDSET172-43_
  *Nset, nset=ASSEMBLY__PICKEDSET172-44_
  *Nset, nset=ASSEMBLY__PICKEDSET172-45_
  *Nset, nset=ASSEMBLY__PICKEDSET172-46_
  *Nset, nset=ASSEMBLY__PICKEDSET172-47_
  *Nset, nset=ASSEMBLY__PICKEDSET172-48_
  *Nset, nset=ASSEMBLY__PICKEDSET172-49_
  *Nset, nset=ASSEMBLY__PICKEDSET172-4_
  *Nset, nset=ASSEMBLY__PICKEDSET172-50_
  *Nset, nset=ASSEMBLY__PICKEDSET172-51_
  *Nset, nset=ASSEMBLY__PICKEDSET172-52_
  *Nset, nset=ASSEMBLY__PICKEDSET172-53_
  *Nset, nset=ASSEMBLY__PICKEDSET172-54_
  *Nset, nset=ASSEMBLY__PICKEDSET172-55_
  *Nset, nset=ASSEMBLY__PICKEDSET172-56_
  *Nset, nset=ASSEMBLY__PICKEDSET172-57_
  *Nset, nset=ASSEMBLY__PICKEDSET172-5_
  *Nset, nset=ASSEMBLY__PICKEDSET172-6_
  *Nset, nset=ASSEMBLY__PICKEDSET172-7_
  *Nset, nset=ASSEMBLY__PICKEDSET172-8_
  *Nset, nset=ASSEMBLY__PICKEDSET172-9_
  *Nset, nset=ASSEMBLY__PICKEDSET173
  *Nset, nset=ASSEMBLY__PICKEDSET173-10_
  *Nset, nset=ASSEMBLY__PICKEDSET173-11_
  *Nset, nset=ASSEMBLY__PICKEDSET173-12_
  *Nset, nset=ASSEMBLY__PICKEDSET173-13_
  *Nset, nset=ASSEMBLY__PICKEDSET173-14_
  *Nset, nset=ASSEMBLY__PICKEDSET173-15_
  *Nset, nset=ASSEMBLY__PICKEDSET173-16_
  *Nset, nset=ASSEMBLY__PICKEDSET173-17_
  *Nset, nset=ASSEMBLY__PICKEDSET173-18_
  *Nset, nset=ASSEMBLY__PICKEDSET173-19_
  *Nset, nset=ASSEMBLY__PICKEDSET173-1_
  *Nset, nset=ASSEMBLY__PICKEDSET173-20_
  *Nset, nset=ASSEMBLY__PICKEDSET173-21_
  *Nset, nset=ASSEMBLY__PICKEDSET173-22_
  *Nset, nset=ASSEMBLY__PICKEDSET173-23_
  *Nset, nset=ASSEMBLY__PICKEDSET173-24_
  *Nset, nset=ASSEMBLY__PICKEDSET173-25_
  *Nset, nset=ASSEMBLY__PICKEDSET173-26_
  *Nset, nset=ASSEMBLY__PICKEDSET173-27_
  *Nset, nset=ASSEMBLY__PICKEDSET173-28_
  *Nset, nset=ASSEMBLY__PICKEDSET173-29_
  *Nset, nset=ASSEMBLY__PICKEDSET173-2_
  *Nset, nset=ASSEMBLY__PICKEDSET173-30_
  *Nset, nset=ASSEMBLY__PICKEDSET173-31_
  *Nset, nset=ASSEMBLY__PICKEDSET173-32_
  *Nset, nset=ASSEMBLY__PICKEDSET173-33_
  *Nset, nset=ASSEMBLY__PICKEDSET173-34_
  *Nset, nset=ASSEMBLY__PICKEDSET173-35_
  *Nset, nset=ASSEMBLY__PICKEDSET173-36_
  *Nset, nset=ASSEMBLY__PICKEDSET173-37_
  *Nset, nset=ASSEMBLY__PICKEDSET173-38_
  *Nset, nset=ASSEMBLY__PICKEDSET173-39_
  *Nset, nset=ASSEMBLY__PICKEDSET173-3_
  *Nset, nset=ASSEMBLY__PICKEDSET173-40_
  *Nset, nset=ASSEMBLY__PICKEDSET173-41_
  *Nset, nset=ASSEMBLY__PICKEDSET173-42_
  *Nset, nset=ASSEMBLY__PICKEDSET173-43_
  *Nset, nset=ASSEMBLY__PICKEDSET173-44_
  *Nset, nset=ASSEMBLY__PICKEDSET173-45_
  *Nset, nset=ASSEMBLY__PICKEDSET173-46_
  *Nset, nset=ASSEMBLY__PICKEDSET173-47_
  *Nset, nset=ASSEMBLY__PICKEDSET173-48_
  *Nset, nset=ASSEMBLY__PICKEDSET173-49_
  *Nset, nset=ASSEMBLY__PICKEDSET173-4_
  *Nset, nset=ASSEMBLY__PICKEDSET173-50_
  *Nset, nset=ASSEMBLY__PICKEDSET173-51_
  *Nset, nset=ASSEMBLY__PICKEDSET173-52_
  *Nset, nset=ASSEMBLY__PICKEDSET173-53_
  *Nset, nset=ASSEMBLY__PICKEDSET173-54_
  *Nset, nset=ASSEMBLY__PICKEDSET173-55_
  *Nset, nset=ASSEMBLY__PICKEDSET173-56_
  *Nset, nset=ASSEMBLY__PICKEDSET173-57_
  *Nset, nset=ASSEMBLY__PICKEDSET173-5_
  *Nset, nset=ASSEMBLY__PICKEDSET173-6_
  *Nset, nset=ASSEMBLY__PICKEDSET173-7_
  *Nset, nset=ASSEMBLY__PICKEDSET173-8_
  *Nset, nset=ASSEMBLY__PICKEDSET173-9_
  *Elset, elset="ASSEMBLY_Edge Seeds-3"
  *Elset, elset="ASSEMBLY_Edge Seeds-4"
  *Elset, elset=ASSEMBLY_INNER
  *Elset, elset=ASSEMBLY_SET-131
  *Elset, elset=ASSEMBLY_SET-132
  *Elset, elset=ASSEMBLY_XSYMM
  *Elset, elset=ASSEMBLY_ZSYMM
  *Elset, elset=ASSEMBLY__PICKEDSET172
  *Elset, elset=ASSEMBLY__PICKEDSET173
  *Elset, elset=ASSEMBLY__S_SURF-5_S2
  *material, name=AL
  *elastic
  *material, name=TIN
  *elastic
  *solidsection, elset=ASSEMBLY_SPECIMEN-1_SET-42, material=AL
  *solidsection, elset=ASSEMBLY_SPECIMEN-1_SET-38, material=AL
  *solidsection, elset=ASSEMBLY_SPECIMEN-1_SET-39, material=TIN
  *solidsection, elset=ASSEMBLY_SPECIMEN-1_SET-40, material=AL
  *solidsection, elset=ASSEMBLY_SPECIMEN-1_SET-41, material=TIN
  *solidsection, elset=ASSEMBLY_SPECIMEN-1_SET-43, material=TIN
  *solidsection, elset=ASSEMBLY_SPECIMEN-1_SET-44, material=AL
  *solidsection, elset=ASSEMBLY_SPECIMEN-1_SET-45, material=TIN
  *solidsection, elset=ASSEMBLY_SPECIMEN-1_SET-46, material=AL
  *solidsection, elset=ASSEMBLY_SPECIMEN-1_SET-37, material=TIN
  *solidsection, elset=ASSEMBLY_SPECIMEN-1_SET-36, material=AL
  *solidsection, elset=ASSEMBLY_SPECIMEN-1_SET-35, material=TIN
  *solidsection, elset=ASSEMBLY_SPECIMEN-1_SET-34, material=AL
  *solidsection, elset=ASSEMBLY_SPECIMEN-1_SET-33, material=TIN
  *solidsection, elset=ASSEMBLY_SPECIMEN-1_SET-32, material=AL
  *solidsection, elset=ASSEMBLY_SPECIMEN-1_SET-31, material=TIN
  *solidsection, elset=ASSEMBLY_SPECIMEN-1_SET-30, material=AL
  *solidsection, elset=ASSEMBLY_SPECIMEN-1_SET-29, material=TIN
  *solidsection, elset=ASSEMBLY_SPECIMEN-1_SET-28, material=AL
  *solidsection, elset=ASSEMBLY_SPECIMEN-1_SET-27, material=TIN
  *solidsection, elset=ASSEMBLY_SPECIMEN-1_SET-26, material=AL
  *solidsection, elset=ASSEMBLY_SPECIMEN-1_SET-25, material=TIN
  *solidsection, elset=ASSEMBLY_SPECIMEN-1_SET-24, material=AL
  *solidsection, elset=ASSEMBLY_SPECIMEN-1_SET-23, material=TIN
  *solidsection, elset=ASSEMBLY_SPECIMEN-1_SET-22, material=AL
  *solidsection, elset=ASSEMBLY_SPECIMEN-1_SET-21, material=TIN
  *solidsection, elset=ASSEMBLY_SPECIMEN-1_SET-20, material=AL
  *solidsection, elset=ASSEMBLY_SPECIMEN-1_SET-19, material=TIN
  *solidsection, elset=ASSEMBLY_SPECIMEN-1_SET-18, material=AL
  *solidsection, elset=ASSEMBLY_SPECIMEN-1_SET-17, material=TIN
  *solidsection, elset=ASSEMBLY_SPECIMEN-1_SET-16, material=AL
  *solidsection, elset=ASSEMBLY_SPECIMEN-1_SET-15, material=TIN
  *solidsection, elset=ASSEMBLY_SPECIMEN-1_SET-14, material=AL
  *solidsection, elset=ASSEMBLY_SPECIMEN-1_SET-13, material=TIN
  *solidsection, elset=ASSEMBLY_SPECIMEN-1_SET-12, material=AL
  *solidsection, elset=ASSEMBLY_SPECIMEN-1_SET-11, material=TIN
  *solidsection, elset=ASSEMBLY_SPECIMEN-1_SET-10, material=AL
  *solidsection, elset=ASSEMBLY_SPECIMEN-1_SET-9, material=TIN
  *solidsection, elset=ASSEMBLY_SPECIMEN-1_SET-8, material=AL
  *solidsection, elset=ASSEMBLY_SPECIMEN-1_SET-7, material=TIN
  *solidsection, elset=ASSEMBLY_SPECIMEN-1_SET-6, material=AL
  *solidsection, elset=ASSEMBLY_SPECIMEN-1_SET-5, material=TIN
  *solidsection, elset=ASSEMBLY_SPECIMEN-1_SET-4, material=AL
  *solidsection, elset=ASSEMBLY_SPECIMEN-1_SET-3, material=TIN
  *solidsection, elset=ASSEMBLY_SPECIMEN-1_SET-2, material=AL
  *solidsection, elset=ASSEMBLY_SPECIMEN-1_SET-1, material=TIN
  *solidsection, elset=ASSEMBLY_SPECIMEN-1_SET-0, material=AL
  *solidsection, elset=ASSEMBLY_SPECIMEN-1_SET-47, material=TIN
  *solidsection, elset=ASSEMBLY_SPECIMEN-1_SET-48, material=AL
  *solidsection, elset=ASSEMBLY_SPECIMEN-1_SET-49, material=TIN
  *solidsection, elset=ASSEMBLY_SPECIMEN-1_SET-50, material=AL
  *solidsection, elset=ASSEMBLY_SPECIMEN-1_SET-51, material=TIN
  *solidsection, elset=ASSEMBLY_SPECIMEN-1_SET-52, material=AL
  *solidsection, elset=ASSEMBLY_SPECIMEN-1_SET-53, material=TIN
  *solidsection, elset=ASSEMBLY_SPECIMEN-1_SET-54, material=AL
  *solidsection, elset=ASSEMBLY_SPECIMEN-1_SET-55, material=TIN
  *solidsection, elset=ASSEMBLY_SPECIMEN-1_SET-56, material=AL
  *solidsection, elset=ASSEMBLY_SPECIMEN-1_SET-57, material=TIN
  *solidsection, elset=ASSEMBLY_SPECIMEN-1_SET-58, material=AL
  *solidsection, elset=ASSEMBLY_SPECIMEN-1_SET-59, material=TIN
  *solidsection, elset=ASSEMBLY_SPECIMEN-1_SET-60, material=AL
  *solidsection, elset=ASSEMBLY_SPECIMEN-1_SET-61, material=TIN
  *solidsection, elset=ASSEMBLY_SPECIMEN-1_SET-62, material=AL
  *solidsection, elset=ASSEMBLY_SPECIMEN-1_SET-63, material=TIN
  *solidsection, elset=ASSEMBLY_SPECIMEN-1_SET-64, material=AL
  *solidsection, elset=ASSEMBLY_SPECIMEN-1_SET-65, material=TIN
  *solidsection, elset=ASSEMBLY_SPECIMEN-1_SET-66, material=AL
  *solidsection, elset=ASSEMBLY_SPECIMEN-1_SET-67, material=TIN
  *solidsection, elset=ASSEMBLY_SPECIMEN-1_SET-68, material=AL
  *solidsection, elset=ASSEMBLY_SPECIMEN-1_SET-69, material=TIN
  *solidsection, elset=ASSEMBLY_SPECIMEN-1_SET-70, material=AL
  *solidsection, elset=ASSEMBLY_SPECIMEN-1_SET-71, material=TIN
  *solidsection, elset=ASSEMBLY_SPECIMEN-1_SET-72, material=AL
  *solidsection, elset=ASSEMBLY_SPECIMEN-1_SET-73, material=TIN
  *solidsection, elset=ASSEMBLY_SPECIMEN-1_SET-74, material=AL
  *solidsection, elset=ASSEMBLY_SPECIMEN-1_SET-75, material=TIN
  *solidsection, elset=ASSEMBLY_SPECIMEN-1_SET-76, material=AL
  *solidsection, elset=ASSEMBLY_SPECIMEN-1_SET-77, material=TIN
  *solidsection, elset=ASSEMBLY_SPECIMEN-1_SET-78, material=AL
  *solidsection, elset=ASSEMBLY_SPECIMEN-1_SET-79, material=TIN
  *solidsection, elset=ASSEMBLY_SPECIMEN-1_SET-80, material=AL
  *solidsection, elset=ASSEMBLY_SPECIMEN-1_SET-81, material=TIN
  *solidsection, elset=ASSEMBLY_SPECIMEN-1_SET-82, material=AL
  *solidsection, elset=ASSEMBLY_SPECIMEN-1_SET-83, material=TIN
  *solidsection, elset=ASSEMBLY_SPECIMEN-1_SET-84, material=AL
  *solidsection, elset=ASSEMBLY_SPECIMEN-1_SET-85, material=TIN
  *solidsection, elset=ASSEMBLY_SPECIMEN-1_SET-86, material=AL
  *solidsection, elset=ASSEMBLY_SPECIMEN-1_SET-87, material=TIN
  *solidsection, elset=ASSEMBLY_SPECIMEN-1_SET-88, material=AL
  *solidsection, elset=ASSEMBLY_SPECIMEN-1_SET-89, material=TIN
  *solidsection, elset=ASSEMBLY_SPECIMEN-1_SET-90, material=AL
  *solidsection, elset=ASSEMBLY_SPECIMEN-1_SET-91, material=TIN
  *solidsection, elset=ASSEMBLY_SPECIMEN-1_SET-92, material=AL
  *solidsection, elset=ASSEMBLY_SPECIMEN-1_SET-93, material=TIN
  *solidsection, elset=ASSEMBLY_SPECIMEN-1_SET-94, material=AL
  *solidsection, elset=ASSEMBLY_SPECIMEN-1_SET-95, material=TIN
  *solidsection, elset=ASSEMBLY_SPECIMEN-1_SET-96, material=AL
  *solidsection, elset=ASSEMBLY_SPECIMEN-1_SET-97, material=TIN
  *solidsection, elset=ASSEMBLY_SPECIMEN-1_SET-98, material=AL
  *solidsection, elset=ASSEMBLY_SPECIMEN-1_SET-99, material=TIN
  *solidsection, elset=ASSEMBLY_SPECIMEN-1_SET-100, material=AL
  *solidsection, elset=ASSEMBLY_SPECIMEN-1_SET-101, material=TIN
  *solidsection, elset=ASSEMBLY_SPECIMEN-1_SET-102, material=AL
  *solidsection, elset=ASSEMBLY_SPECIMEN-1_SET-103, material=TIN
  *solidsection, elset=ASSEMBLY_SPECIMEN-1_SET-104, material=AL
  *solidsection, elset=ASSEMBLY_SPECIMEN-1_SET-105, material=TIN
  *solidsection, elset=ASSEMBLY_SPECIMEN-1_SET-106, material=AL
  *solidsection, elset=ASSEMBLY_SPECIMEN-1_SET-107, material=TIN
  *solidsection, elset=ASSEMBLY_SPECIMEN-1_SET-108, material=AL
  *solidsection, elset=ASSEMBLY_SPECIMEN-1_SET-109, material=TIN
  *solidsection, elset=ASSEMBLY_SPECIMEN-1_SET-110, material=AL
  *solidsection, elset=ASSEMBLY_SPECIMEN-1_SET-111, material=TIN
  *solidsection, elset=ASSEMBLY_SPECIMEN-1_SET-112, material=AL
  *solidsection, elset=ASSEMBLY_SPECIMEN-1_SET-113, material=TIN
  *solidsection, elset=ASSEMBLY_SPECIMEN-1_SET-114, material=AL
  *solidsection, elset=ASSEMBLY_SPECIMEN-1_SET-115, material=TIN
  *solidsection, elset=ASSEMBLY_SPECIMEN-1_SET-116, material=AL
  *solidsection, elset=ASSEMBLY_SPECIMEN-1_SET-117, material=TIN
  *solidsection, elset=ASSEMBLY_SPECIMEN-1_SET-118, material=AL
  *solidsection, elset=ASSEMBLY_SPECIMEN-1_SET-119, material=TIN
  *solidsection, elset=ASSEMBLY_SPECIMEN-1_SET-120, material=AL
  *solidsection, elset=ASSEMBLY_SPECIMEN-1_SET-121, material=TIN
  *solidsection, elset=ASSEMBLY_SPECIMEN-1_SET-122, material=AL
  *solidsection, elset=ASSEMBLY_SPECIMEN-1_SET-123, material=TIN
  *solidsection, elset=ASSEMBLY_SPECIMEN-1_SET-124, material=AL
  *solidsection, elset=ASSEMBLY_SPECIMEN-1_SET-42, material=AL
  *solidsection, elset=ASSEMBLY_SPECIMEN-1_SET-38, material=AL
  *solidsection, elset=ASSEMBLY_SPECIMEN-1_SET-39, material=TIN
  *solidsection, elset=ASSEMBLY_SPECIMEN-1_SET-40, material=AL
  *solidsection, elset=ASSEMBLY_SPECIMEN-1_SET-41, material=TIN
  *solidsection, elset=ASSEMBLY_SPECIMEN-1_SET-43, material=TIN
  *solidsection, elset=ASSEMBLY_SPECIMEN-1_SET-44, material=AL
  *solidsection, elset=ASSEMBLY_SPECIMEN-1_SET-45, material=TIN
  *solidsection, elset=ASSEMBLY_SPECIMEN-1_SET-46, material=AL
  *solidsection, elset=ASSEMBLY_SPECIMEN-1_SET-37, material=TIN
  *solidsection, elset=ASSEMBLY_SPECIMEN-1_SET-36, material=AL
  *solidsection, elset=ASSEMBLY_SPECIMEN-1_SET-35, material=TIN
  *solidsection, elset=ASSEMBLY_SPECIMEN-1_SET-34, material=AL
  *solidsection, elset=ASSEMBLY_SPECIMEN-1_SET-33, material=TIN
  *solidsection, elset=ASSEMBLY_SPECIMEN-1_SET-32, material=AL
  *solidsection, elset=ASSEMBLY_SPECIMEN-1_SET-31, material=TIN
  *solidsection, elset=ASSEMBLY_SPECIMEN-1_SET-30, material=AL
  *solidsection, elset=ASSEMBLY_SPECIMEN-1_SET-29, material=TIN
  *solidsection, elset=ASSEMBLY_SPECIMEN-1_SET-28, material=AL
  *solidsection, elset=ASSEMBLY_SPECIMEN-1_SET-27, material=TIN
  *solidsection, elset=ASSEMBLY_SPECIMEN-1_SET-26, material=AL
  *solidsection, elset=ASSEMBLY_SPECIMEN-1_SET-25, material=TIN
  *solidsection, elset=ASSEMBLY_SPECIMEN-1_SET-24, material=AL
  *solidsection, elset=ASSEMBLY_SPECIMEN-1_SET-23, material=TIN
  *solidsection, elset=ASSEMBLY_SPECIMEN-1_SET-22, material=AL
  *solidsection, elset=ASSEMBLY_SPECIMEN-1_SET-21, material=TIN
  *solidsection, elset=ASSEMBLY_SPECIMEN-1_SET-20, material=AL
  *solidsection, elset=ASSEMBLY_SPECIMEN-1_SET-19, material=TIN
  *solidsection, elset=ASSEMBLY_SPECIMEN-1_SET-18, material=AL
  *solidsection, elset=ASSEMBLY_SPECIMEN-1_SET-17, material=TIN
  *solidsection, elset=ASSEMBLY_SPECIMEN-1_SET-16, material=AL
  *solidsection, elset=ASSEMBLY_SPECIMEN-1_SET-15, material=TIN
  *solidsection, elset=ASSEMBLY_SPECIMEN-1_SET-14, material=AL
  *solidsection, elset=ASSEMBLY_SPECIMEN-1_SET-13, material=TIN
  *solidsection, elset=ASSEMBLY_SPECIMEN-1_SET-12, material=AL
  *solidsection, elset=ASSEMBLY_SPECIMEN-1_SET-11, material=TIN
  *solidsection, elset=ASSEMBLY_SPECIMEN-1_SET-10, material=AL
  *solidsection, elset=ASSEMBLY_SPECIMEN-1_SET-9, material=TIN
  *solidsection, elset=ASSEMBLY_SPECIMEN-1_SET-8, material=AL
  *solidsection, elset=ASSEMBLY_SPECIMEN-1_SET-7, material=TIN
  *solidsection, elset=ASSEMBLY_SPECIMEN-1_SET-6, material=AL
  *solidsection, elset=ASSEMBLY_SPECIMEN-1_SET-5, material=TIN
  *solidsection, elset=ASSEMBLY_SPECIMEN-1_SET-4, material=AL
  *solidsection, elset=ASSEMBLY_SPECIMEN-1_SET-3, material=TIN
  *solidsection, elset=ASSEMBLY_SPECIMEN-1_SET-2, material=AL
  *solidsection, elset=ASSEMBLY_SPECIMEN-1_SET-1, material=TIN
  *solidsection, elset=ASSEMBLY_SPECIMEN-1_SET-0, material=AL
  *solidsection, elset=ASSEMBLY_SPECIMEN-1_SET-47, material=TIN
  *solidsection, elset=ASSEMBLY_SPECIMEN-1_SET-48, material=AL
  *solidsection, elset=ASSEMBLY_SPECIMEN-1_SET-49, material=TIN
  *solidsection, elset=ASSEMBLY_SPECIMEN-1_SET-50, material=AL
  *solidsection, elset=ASSEMBLY_SPECIMEN-1_SET-51, material=TIN
  *solidsection, elset=ASSEMBLY_SPECIMEN-1_SET-52, material=AL
  *solidsection, elset=ASSEMBLY_SPECIMEN-1_SET-53, material=TIN
  *solidsection, elset=ASSEMBLY_SPECIMEN-1_SET-54, material=AL
  *solidsection, elset=ASSEMBLY_SPECIMEN-1_SET-55, material=TIN
  *solidsection, elset=ASSEMBLY_SPECIMEN-1_SET-56, material=AL
  *solidsection, elset=ASSEMBLY_SPECIMEN-1_SET-57, material=TIN
  *solidsection, elset=ASSEMBLY_SPECIMEN-1_SET-58, material=AL
  *solidsection, elset=ASSEMBLY_SPECIMEN-1_SET-59, material=TIN
  *solidsection, elset=ASSEMBLY_SPECIMEN-1_SET-60, material=AL
  *solidsection, elset=ASSEMBLY_SPECIMEN-1_SET-61, material=TIN
  *solidsection, elset=ASSEMBLY_SPECIMEN-1_SET-62, material=AL
  *solidsection, elset=ASSEMBLY_SPECIMEN-1_SET-63, material=TIN
  *solidsection, elset=ASSEMBLY_SPECIMEN-1_SET-64, material=AL
  *solidsection, elset=ASSEMBLY_SPECIMEN-1_SET-65, material=TIN
  *solidsection, elset=ASSEMBLY_SPECIMEN-1_SET-66, material=AL
  *solidsection, elset=ASSEMBLY_SPECIMEN-1_SET-67, material=TIN
  *solidsection, elset=ASSEMBLY_SPECIMEN-1_SET-68, material=AL
  *solidsection, elset=ASSEMBLY_SPECIMEN-1_SET-69, material=TIN
  *solidsection, elset=ASSEMBLY_SPECIMEN-1_SET-70, material=AL
  *solidsection, elset=ASSEMBLY_SPECIMEN-1_SET-71, material=TIN
  *solidsection, elset=ASSEMBLY_SPECIMEN-1_SET-72, material=AL
  *solidsection, elset=ASSEMBLY_SPECIMEN-1_SET-73, material=TIN
  *solidsection, elset=ASSEMBLY_SPECIMEN-1_SET-74, material=AL
  *solidsection, elset=ASSEMBLY_SPECIMEN-1_SET-75, material=TIN
  *solidsection, elset=ASSEMBLY_SPECIMEN-1_SET-76, material=AL
  *solidsection, elset=ASSEMBLY_SPECIMEN-1_SET-77, material=TIN
  *solidsection, elset=ASSEMBLY_SPECIMEN-1_SET-78, material=AL
  *solidsection, elset=ASSEMBLY_SPECIMEN-1_SET-79, material=TIN
  *solidsection, elset=ASSEMBLY_SPECIMEN-1_SET-80, material=AL
  *solidsection, elset=ASSEMBLY_SPECIMEN-1_SET-81, material=TIN
  *solidsection, elset=ASSEMBLY_SPECIMEN-1_SET-82, material=AL
  *solidsection, elset=ASSEMBLY_SPECIMEN-1_SET-83, material=TIN
  *solidsection, elset=ASSEMBLY_SPECIMEN-1_SET-84, material=AL
  *solidsection, elset=ASSEMBLY_SPECIMEN-1_SET-85, material=TIN
  *solidsection, elset=ASSEMBLY_SPECIMEN-1_SET-86, material=AL
  *solidsection, elset=ASSEMBLY_SPECIMEN-1_SET-87, material=TIN
  *solidsection, elset=ASSEMBLY_SPECIMEN-1_SET-88, material=AL
  *solidsection, elset=ASSEMBLY_SPECIMEN-1_SET-89, material=TIN
  *solidsection, elset=ASSEMBLY_SPECIMEN-1_SET-90, material=AL
  *solidsection, elset=ASSEMBLY_SPECIMEN-1_SET-91, material=TIN
  *solidsection, elset=ASSEMBLY_SPECIMEN-1_SET-92, material=AL
  *solidsection, elset=ASSEMBLY_SPECIMEN-1_SET-93, material=TIN
  *solidsection, elset=ASSEMBLY_SPECIMEN-1_SET-94, material=AL
  *solidsection, elset=ASSEMBLY_SPECIMEN-1_SET-95, material=TIN
  *solidsection, elset=ASSEMBLY_SPECIMEN-1_SET-96, material=AL
  *solidsection, elset=ASSEMBLY_SPECIMEN-1_SET-97, material=TIN
  *solidsection, elset=ASSEMBLY_SPECIMEN-1_SET-98, material=AL
  *solidsection, elset=ASSEMBLY_SPECIMEN-1_SET-99, material=TIN
  *solidsection, elset=ASSEMBLY_SPECIMEN-1_SET-100, material=AL
  *solidsection, elset=ASSEMBLY_SPECIMEN-1_SET-101, material=TIN
  *solidsection, elset=ASSEMBLY_SPECIMEN-1_SET-102, material=AL
  *solidsection, elset=ASSEMBLY_SPECIMEN-1_SET-103, material=TIN
  *solidsection, elset=ASSEMBLY_SPECIMEN-1_SET-104, material=AL
  *solidsection, elset=ASSEMBLY_SPECIMEN-1_SET-105, material=TIN
  *solidsection, elset=ASSEMBLY_SPECIMEN-1_SET-106, material=AL
  *solidsection, elset=ASSEMBLY_SPECIMEN-1_SET-107, material=TIN
  *solidsection, elset=ASSEMBLY_SPECIMEN-1_SET-108, material=AL
  *solidsection, elset=ASSEMBLY_SPECIMEN-1_SET-109, material=TIN
  *solidsection, elset=ASSEMBLY_SPECIMEN-1_SET-110, material=AL
  *solidsection, elset=ASSEMBLY_SPECIMEN-1_SET-111, material=TIN
  *solidsection, elset=ASSEMBLY_SPECIMEN-1_SET-112, material=AL
  *solidsection, elset=ASSEMBLY_SPECIMEN-1_SET-113, material=TIN
  *solidsection, elset=ASSEMBLY_SPECIMEN-1_SET-114, material=AL
  *solidsection, elset=ASSEMBLY_SPECIMEN-1_SET-115, material=TIN
  *solidsection, elset=ASSEMBLY_SPECIMEN-1_SET-116, material=AL
  *solidsection, elset=ASSEMBLY_SPECIMEN-1_SET-117, material=TIN
  *solidsection, elset=ASSEMBLY_SPECIMEN-1_SET-118, material=AL
  *solidsection, elset=ASSEMBLY_SPECIMEN-1_SET-119, material=TIN
  *solidsection, elset=ASSEMBLY_SPECIMEN-1_SET-120, material=AL
  *solidsection, elset=ASSEMBLY_SPECIMEN-1_SET-121, material=TIN
  *solidsection, elset=ASSEMBLY_SPECIMEN-1_SET-122, material=AL
  *solidsection, elset=ASSEMBLY_SPECIMEN-1_SET-123, material=TIN
  *solidsection, elset=ASSEMBLY_SPECIMEN-1_SET-124, material=AL
  *rigidbody, refnode=ASSEMBLY_INDENTOR-1_INDENTOR-1-REFPT_, analyticalsurface=ASSEMBLY_INDENTOR-1_M_SURF-3
  *contactpair, interaction=INTERACTIONPROPS, type=SURFACETOSURFACE
  *surface, type=REVOLUTION, name=ASSEMBLY_INDENTOR-1_M_SURF-3
  *surface, type=ELEMENT, name=ASSEMBLY_S_SURF-5
  *rigidbody, refnode=ASSEMBLY_INDENTOR-1_INDENTOR-1-REFPT_, analyticalsurface=ASSEMBLY_INDENTOR-1_M_SURF-3
  *rigidbody, refnode=ASSEMBLY_INDENTOR-1_INDENTOR-1-REFPT_, analyticalsurface=ASSEMBLY_INDENTOR-1_M_SURF-3
  *rigidbody, refnode=ASSEMBLY_INDENTOR-1_INDENTOR-1-REFPT_, analyticalsurface=ASSEMBLY_INDENTOR-1_M_SURF-3
  *contactpair, interaction=INTERACTIONPROPS, type=SURFACETOSURFACE
  *surface, type=REVOLUTION, name=ASSEMBLY_INDENTOR-1_M_SURF-3
  *surface, type=ELEMENT, name=ASSEMBLY_S_SURF-5
  *surface, type=REVOLUTION, name=ASSEMBLY_INDENTOR-1_M_SURF-3
  *surface, type=ELEMENT, name=ASSEMBLY_S_SURF-5
  *contactpair, interaction=INTERACTIONPROPS, type=SURFACETOSURFACE
  *surfaceinteraction, name=INTERACTIONPROPS
  *surfacebehavior, pressure-overclosure=HARD
  *contactpair, interaction=INTERACTIONPROPS, type=SURFACETOSURFACE
  *contactpair, interaction=INTERACTIONPROPS, type=SURFACETOSURFACE
  *rigidbody, refnode=ASSEMBLY_INDENTOR-1_INDENTOR-1-REFPT_, analyticalsurface=ASSEMBLY_INDENTOR-1_M_SURF-3
  *surfaceinteraction, name=INTERACTIONPROPS
  *friction
  *surfacebehavior, pressure-overclosure=HARD
  *surfaceinteraction, name=INTERACTIONPROPS
  *rigidbody, refnode=ASSEMBLY_INDENTOR-1_INDENTOR-1-REFPT_, analyticalsurface=ASSEMBLY_INDENTOR-1_M_SURF-3
  *rigidbody, refnode=ASSEMBLY_INDENTOR-1_INDENTOR-1-REFPT_, analyticalsurface=ASSEMBLY_INDENTOR-1_M_SURF-3
  *boundary
  *boundary
  *boundary
  *boundary
  *boundary
  *boundary
  *boundary
  *boundary
  *boundary
  *boundary
  *contactpair, interaction=INTERACTIONPROPS, type=SURFACETOSURFACE

 ***WARNING: PATH BASED TRACKING IS DEFINED IN CONTACT PAIR 
             (ASSEMBLY_S_SURF-5,ASSEMBLY_INDENTOR-1_M_SURF-3). PATH BASED 
             TRACKING CANNOT BE USED WITH ANALYTICAL RIGID MASTER SURFACES, THE 
             STATE BASED TRACKING ALGORITHM WILL BE USED INSTEAD.
  *surfaceinteraction, name=INTERACTIONPROPS
  *contactpair, interaction=INTERACTIONPROPS, type=SURFACETOSURFACE
  *rigidbody, refnode=ASSEMBLY_INDENTOR-1_INDENTOR-1-REFPT_, analyticalsurface=ASSEMBLY_INDENTOR-1_M_SURF-3
  *surface, type=REVOLUTION, name=ASSEMBLY_INDENTOR-1_M_SURF-3
  *surface, type=ELEMENT, name=ASSEMBLY_S_SURF-5
  *output, field
  *output, history
  *elementoutput, directions=YES
  *output, field
  *output, history
  *elementoutput, directions=YES
  *output, field
  *output, history
  *elementoutput, directions=YES
  
                               E L E M E N T   Q U A L I T Y  C H E C K S        
  
  
 ***NOTES: DISTORTED ISOPARAMETRIC ELEMENTS: ANGLE BETWEEN ISOPARAMETRIC LINES 
           IS LESS THAN 45 DEGREES OR GREATER THAN 135 DEGREES.
  
           TETRAHEDRAL QUALITY MEASURE: VOLUME OF TETRAHEDRON DIVIDED BY THE 
           VOLUME OF EQUILATERAL TETRAHEDRON WITH SAME CIRCUMSPHERE RADIUS; 
           0 FOR DEGENERATE TETRAHEDRON AND 1 FOR EQUILATERIAL TETRAHEDRON. IT 
           IS RECOMMENDED THAT THE TETRAHEDRAL QUALITY MEASURE BE GREATER THAN 
           0.02, THE MIN INTERIOR (DIHEDRAL) ANGLE BE GREATER THAN 10 DEGREES, 
           AND THE MAX INTERIOR (DIHEDRAL) ANGLE BE LESS THAN 160 DEGREES. 
  
           MODIFIED TETRAHEDRAL QUALITY MEASURE: ANGLES BETWEEN THE TWO LINE 
           SEGMENTS ON EACH EDGE; THE EDGES OF MODIFIED TETRAHEDRAL SHOULD BE 
           AS STRAIGHT AS POSSIBLE. IT IS RECOMMENDED THAT THE ANGLE BETWEEN 
           THE TWO LINE SEGMENTS ON EACH EDGE IS BETWEEN 160 AND 180 DEGREES. 
  
           TRIANGULAR QUALITY MEASURE: AREA OF TRIANGLE DIVIDED BY THE AREA OF 
           EQUILATERAL TRIANGLE WITH SAME CIRCUMCIRCLE RADIUS; 0 FOR DEGENERATE 
           TRIANGLE AND 1 FOR EQUILATERAL TRIANGLE. IT IS RECOMMENDED THAT THE
           TRIANGULAR QUALITY MEASURE BE GREATER THAN 0.01, THE MIN INTERIOR 
           ANGLE BE GREATER THAN 10 DEGREES, AND THE MAX INTERIOR ANGLE BE LESS 
           THAN 160 DEGREES. 
  
           NODAL ADJUSTMENTS ARISING FROM CONTACT INTERACTIONS AND/OR TIE 
           CONSTRAINTS CAN CAUSE SEVERE ELEMENT DISTORTION. IT MAY BE NECESSARY 
           TO REMESH IN ORDER TO REDUCE THE AMOUNT OF ADJUSTMENT. 

 ***WARNING: 1895 elements are distorted. Either the isoparametric angles are 
             out of the suggested limits or the triangular or tetrahedral 
             quality measure is bad. The elements have been identified in 
             element set WarnElemDistorted.

 ***WARNING: The aspect ratio for 560 elements exceeds 100 to 1. The elements 
             have been identified in element set WarnElemAspectRatio.
  
 --------------------------------------------------------------------------------
 Distorted isoparametric elements
  
       Element         Min/max angle   Adjusted nodes 
 -------------------- ---------------- -------------- 
      SPECIMEN-1.1065          44.3224       NO       
      SPECIMEN-1.1107          42.1424       NO       
      SPECIMEN-1.1110           42.872       NO       
      SPECIMEN-1.1113           43.006       NO       
      SPECIMEN-1.1116          43.3096       NO       
      SPECIMEN-1.1119          43.9507       NO       
      SPECIMEN-1.1122           44.862       NO       
      SPECIMEN-1.1149          40.7163       NO       
      SPECIMEN-1.1152          41.1893       NO       
      SPECIMEN-1.1155           41.213       NO       
      SPECIMEN-1.1158          41.4161       NO       
      SPECIMEN-1.1161           41.922       NO       
      SPECIMEN-1.1164           42.675       NO       
      SPECIMEN-1.1167           43.594       NO       
      SPECIMEN-1.1170          44.6101       NO       
      SPECIMEN-1.1191          39.8259       NO       
      SPECIMEN-1.1194          40.0316       NO       
      SPECIMEN-1.1197          40.0286       NO       
      SPECIMEN-1.1200          40.1281       NO       
      SPECIMEN-1.1203          40.4991       NO       
      SPECIMEN-1.1206          41.0811       NO       
      SPECIMEN-1.1209          41.8055       NO       
      SPECIMEN-1.1212          42.6079       NO       
      SPECIMEN-1.1215          43.4619       NO       
      SPECIMEN-1.1218          44.3585       NO       
      SPECIMEN-1.1232          42.4961       NO       
      SPECIMEN-1.1233          39.2384       NO       
      SPECIMEN-1.1236          39.2781       NO       
      SPECIMEN-1.1239          39.2175       NO       
      SPECIMEN-1.1242          39.2343       NO       
      SPECIMEN-1.1245           39.453       NO       
      SPECIMEN-1.1248          39.8615       NO       
      SPECIMEN-1.1251          40.3828       NO       
      SPECIMEN-1.1254          40.9559       NO       
      SPECIMEN-1.1257          41.5838       NO       
      SPECIMEN-1.1260          42.2255       NO       
      SPECIMEN-1.1263          42.8872       NO       
      SPECIMEN-1.1266          43.6006       NO       
      SPECIMEN-1.1267          44.9988       NO       
      SPECIMEN-1.1269          44.3991       NO       
      SPECIMEN-1.1270          43.4475       NO       
      SPECIMEN-1.1271          42.3215       NO       
      SPECIMEN-1.1273          42.5838       NO       
      SPECIMEN-1.1274           39.528       NO       
      SPECIMEN-1.1275          38.6403       NO       
      SPECIMEN-1.1278           38.535       NO       
      SPECIMEN-1.1281          38.3638       NO       
      SPECIMEN-1.1284          38.3498       NO       
      SPECIMEN-1.1287          38.4081       NO       
      SPECIMEN-1.1290          38.6042       NO       
      SPECIMEN-1.1293          38.8909       NO       
      SPECIMEN-1.1296          39.2201       NO       
      SPECIMEN-1.1299          39.5857       NO       
      SPECIMEN-1.1302           39.945       NO       
      SPECIMEN-1.1303          43.9114       NO       
      SPECIMEN-1.1305          40.3174       NO       
      SPECIMEN-1.1306          42.5574       NO       
      SPECIMEN-1.1307          44.7262       NO       
      SPECIMEN-1.1308          40.7314       NO       
      SPECIMEN-1.1309          41.2326       NO       
      SPECIMEN-1.1310          42.0885       NO       
      SPECIMEN-1.1311          41.2233       NO       
      SPECIMEN-1.1312          39.9319       NO       
      SPECIMEN-1.1313          39.1489       NO       
      SPECIMEN-1.1314           41.825       NO       
      SPECIMEN-1.1315          39.2098       NO       
      SPECIMEN-1.1316           36.922       NO       
      SPECIMEN-1.1317          36.7563       NO       
      SPECIMEN-1.1320          36.4314       NO       
      SPECIMEN-1.1323          36.1097       NO       
      SPECIMEN-1.1326          35.9055       NO       
      SPECIMEN-1.1329          35.8194       NO       
      SPECIMEN-1.1332            35.81       NO       
      SPECIMEN-1.1333          44.0155       NO       
      SPECIMEN-1.1335          35.8121       NO       
      SPECIMEN-1.1336          42.7399       NO       
      SPECIMEN-1.1338          35.8346       NO       
      SPECIMEN-1.1339          41.5036       NO       
      SPECIMEN-1.1341          35.8756       NO       
      SPECIMEN-1.1342          40.3211       NO       
      SPECIMEN-1.1343           44.958       NO       
      SPECIMEN-1.1344          35.9151       NO       
      SPECIMEN-1.1345          39.1866       NO       
      SPECIMEN-1.1346          42.7796       NO       
      SPECIMEN-1.1347          35.9665       NO       
      SPECIMEN-1.1348          38.0922       NO       
      SPECIMEN-1.1349          40.7124       NO       
      SPECIMEN-1.1350          36.0333       NO       
      SPECIMEN-1.1351          37.0001       NO       
      SPECIMEN-1.1352           38.606       NO       
      SPECIMEN-1.1353          36.1658       NO       
      SPECIMEN-1.1354          35.9261       NO       
      SPECIMEN-1.1355          36.2482       NO       
      SPECIMEN-1.1356          36.3826       NO       
      SPECIMEN-1.1357          35.3799       NO       
      SPECIMEN-1.1358          34.5889       NO       
      SPECIMEN-1.1359          29.2883       NO       
      SPECIMEN-1.1360          43.0683       NO       
      SPECIMEN-1.1362          28.6471       NO       
      SPECIMEN-1.1363          42.6511       NO       
      SPECIMEN-1.1365          28.0669       NO       
      SPECIMEN-1.1366          41.9029       NO       
      SPECIMEN-1.1368          27.6055       NO       
      SPECIMEN-1.1369          40.8618       NO       
      SPECIMEN-1.1371          27.2246       NO       
      SPECIMEN-1.1372          39.7066       NO       
      SPECIMEN-1.1374          26.9035       NO       
      SPECIMEN-1.1375          38.5289       NO       
      SPECIMEN-1.1377           26.605       NO       
      SPECIMEN-1.1378          37.3958       NO       
      SPECIMEN-1.1380          26.3195       NO       
      SPECIMEN-1.1381          36.2952       NO       
      SPECIMEN-1.1382          44.2258       NO       
      SPECIMEN-1.1383          26.0499       NO       
      SPECIMEN-1.1384          35.2456       NO       
      SPECIMEN-1.1385          42.1705       NO       
      SPECIMEN-1.1386          25.7796       NO       
      SPECIMEN-1.1387           34.247       NO       
      SPECIMEN-1.1388          40.2671       NO       
      SPECIMEN-1.1389          25.5273       NO       
      SPECIMEN-1.1390          33.2819       NO       
      SPECIMEN-1.1391          38.4544       NO       
      SPECIMEN-1.1392          25.3043       NO       
      SPECIMEN-1.1393          32.3334       NO       
      SPECIMEN-1.1394          36.6109       NO       
      SPECIMEN-1.1395          25.1598       NO       
      SPECIMEN-1.1396          31.4097       NO       
      SPECIMEN-1.1397          34.5738       NO       
      SPECIMEN-1.1398          25.0623       NO       
      SPECIMEN-1.1399          30.9986       NO       
      SPECIMEN-1.1400          33.3508       NO       
      SPECIMEN-1.1695          41.7974       NO       
      SPECIMEN-1.1696          41.8657       NO       
      SPECIMEN-1.1697          42.8184       NO       
      SPECIMEN-1.1698          43.1275       NO       
      SPECIMEN-1.1699           43.036       NO       
      SPECIMEN-1.1700          42.8415       NO       
      SPECIMEN-1.1701          42.6421       NO       
      SPECIMEN-1.1702          42.4319       NO       
      SPECIMEN-1.1703          42.2125       NO       
      SPECIMEN-1.1704          42.0355       NO       
      SPECIMEN-1.1705          42.0207       NO       
      SPECIMEN-1.1706          42.1159       NO       
      SPECIMEN-1.1707          42.5896       NO       
      SPECIMEN-1.1708          42.1328       NO       
      SPECIMEN-1.1737          38.8963       NO       
      SPECIMEN-1.1738          38.9478       NO       
      SPECIMEN-1.1739          39.7396       NO       
      SPECIMEN-1.1740          39.9731       NO       
      SPECIMEN-1.1741          39.8525       NO       
      SPECIMEN-1.1742          39.6721       NO       
      SPECIMEN-1.1743           39.479       NO       
      SPECIMEN-1.1744          39.2714       NO       
      SPECIMEN-1.1745          39.0655       NO       
      SPECIMEN-1.1746          38.8937       NO       
      SPECIMEN-1.1747          38.8817       NO       
      SPECIMEN-1.1748          38.9854       NO       
      SPECIMEN-1.1749          39.4582       NO       
      SPECIMEN-1.1750          39.0732       NO       
      SPECIMEN-1.1751          42.5056       NO       
      SPECIMEN-1.1752           42.586       NO       
      SPECIMEN-1.1753           42.677       NO       
      SPECIMEN-1.1754          42.6735       NO       
      SPECIMEN-1.1755          42.6128       NO       
      SPECIMEN-1.1756          42.5465       NO       
      SPECIMEN-1.1757          42.4764       NO       
      SPECIMEN-1.1758          42.3919       NO       
      SPECIMEN-1.1759          42.3319       NO       
      SPECIMEN-1.1760          42.3218       NO       
      SPECIMEN-1.1761          42.3408       NO       
      SPECIMEN-1.1762          42.5264       NO       
      SPECIMEN-1.1763          42.7666       NO       
      SPECIMEN-1.1764          42.9147       NO       
      SPECIMEN-1.1779          36.3924       NO       
      SPECIMEN-1.1780          36.4307       NO       
      SPECIMEN-1.1781          37.0631       NO       
      SPECIMEN-1.1782          37.2406       NO       
      SPECIMEN-1.1783          37.1211       NO       
      SPECIMEN-1.1784          36.9627       NO       
      SPECIMEN-1.1785          36.7703       NO       
      SPECIMEN-1.1786          36.5833       NO       
      SPECIMEN-1.1787          36.3911       NO       
      SPECIMEN-1.1788           36.247       NO       
      SPECIMEN-1.1789          36.2384       NO       
      SPECIMEN-1.1790          36.3346       NO       
      SPECIMEN-1.1791          36.7221       NO       
      SPECIMEN-1.1792          36.5746       NO       
      SPECIMEN-1.1793          39.1263       NO       
      SPECIMEN-1.1794          39.1319       NO       
      SPECIMEN-1.1795          39.1821       NO       
      SPECIMEN-1.1796          39.1699       NO       
      SPECIMEN-1.1797          39.1305       NO       
      SPECIMEN-1.1798          39.0595       NO       
      SPECIMEN-1.1799          38.9974       NO       
      SPECIMEN-1.1800          38.9295       NO       
      SPECIMEN-1.1801          38.8813       NO       
      SPECIMEN-1.1802          38.8776       NO       
      SPECIMEN-1.1803          38.8992       NO       
      SPECIMEN-1.1804          39.0267       NO       
      SPECIMEN-1.1805           39.177       NO       
      SPECIMEN-1.1806          39.2822       NO       
      SPECIMEN-1.1807          42.4022       NO       
      SPECIMEN-1.1808          42.4215       NO       
      SPECIMEN-1.1809          42.2261       NO       
      SPECIMEN-1.1810           42.151       NO       
      SPECIMEN-1.1811           42.145       NO       
      SPECIMEN-1.1812          42.1485       NO       
      SPECIMEN-1.1813          42.1802       NO       
      SPECIMEN-1.1814           42.227       NO       
      SPECIMEN-1.1815          42.2913       NO       
      SPECIMEN-1.1816          42.3356       NO       
      SPECIMEN-1.1817          42.2934       NO       
      SPECIMEN-1.1818          42.2757       NO       
      SPECIMEN-1.1819          42.2927       NO       
      SPECIMEN-1.1820          42.5427       NO       
      SPECIMEN-1.1821          34.1641       NO       
      SPECIMEN-1.1822          34.1903       NO       
      SPECIMEN-1.1823          34.6804       NO       
      SPECIMEN-1.1824          34.7953       NO       
      SPECIMEN-1.1825          34.6913       NO       
      SPECIMEN-1.1826          34.5487       NO       
      SPECIMEN-1.1827          34.3944       NO       
      SPECIMEN-1.1828          34.2361       NO       
      SPECIMEN-1.1829          34.0665       NO       
      SPECIMEN-1.1830          33.9488       NO       
      SPECIMEN-1.1831          33.9398       NO       
      SPECIMEN-1.1832          33.9936       NO       
      SPECIMEN-1.1833          34.2164       NO       
      SPECIMEN-1.1834          34.2944       NO       
      SPECIMEN-1.1835          35.1591       NO       
      SPECIMEN-1.1836          35.1381       NO       
      SPECIMEN-1.1837          35.1273       NO       
      SPECIMEN-1.1838          35.0941       NO       
      SPECIMEN-1.1839          35.0548       NO       
      SPECIMEN-1.1840          35.0152       NO       
      SPECIMEN-1.1841          34.9702       NO       
      SPECIMEN-1.1842          34.9204       NO       
      SPECIMEN-1.1843          34.8785       NO       
      SPECIMEN-1.1844          34.8738       NO       
      SPECIMEN-1.1845          34.8837       NO       
      SPECIMEN-1.1846          34.9306       NO       
      SPECIMEN-1.1847          34.9813       NO       
      SPECIMEN-1.1848          35.0248       NO       
      SPECIMEN-1.1849          36.6074       NO       
      SPECIMEN-1.1850          36.5967       NO       
      SPECIMEN-1.1851          36.4594       NO       
      SPECIMEN-1.1852           36.415       NO       
      SPECIMEN-1.1853          36.4123       NO       
      SPECIMEN-1.1854          36.4198       NO       
      SPECIMEN-1.1855          36.4425       NO       
      SPECIMEN-1.1856          36.4811       NO       
      SPECIMEN-1.1857          36.5256       NO       
      SPECIMEN-1.1858          36.5642       NO       
      SPECIMEN-1.1859          36.5423       NO       
      SPECIMEN-1.1860          36.5187       NO       
      SPECIMEN-1.1861          36.5206       NO       
      SPECIMEN-1.1862          36.5758       NO       
      SPECIMEN-1.1863          32.9045       NO       
      SPECIMEN-1.1864          32.8977       NO       
      SPECIMEN-1.1865          33.1702       NO       
      SPECIMEN-1.1866          33.1456       NO       
      SPECIMEN-1.1867          33.0247       NO       
      SPECIMEN-1.1868          32.8754       NO       
      SPECIMEN-1.1869          32.7238       NO       
      SPECIMEN-1.1870          32.5585       NO       
      SPECIMEN-1.1871          32.4019       NO       
      SPECIMEN-1.1872          32.2605       NO       
      SPECIMEN-1.1873          32.1802       NO       
      SPECIMEN-1.1874          32.1778       NO       
      SPECIMEN-1.1875          32.2413       NO       
      SPECIMEN-1.1876          32.3831       NO       
      SPECIMEN-1.1877          30.6157       NO       
      SPECIMEN-1.1878          30.4963       NO       
      SPECIMEN-1.1879          30.4487       NO       
      SPECIMEN-1.1880          30.4071       NO       
      SPECIMEN-1.1881          30.3662       NO       
      SPECIMEN-1.1882          30.3284       NO       
      SPECIMEN-1.1883          30.2859       NO       
      SPECIMEN-1.1884          30.2441       NO       
      SPECIMEN-1.1885          30.2034       NO       
      SPECIMEN-1.1886          30.1653       NO       
      SPECIMEN-1.1887          30.1358       NO       
      SPECIMEN-1.1888          30.1342       NO       
      SPECIMEN-1.1889          30.1512       NO       
      SPECIMEN-1.1890           30.222       NO       
      SPECIMEN-1.1891          25.0258       NO       
      SPECIMEN-1.1892          24.9771       NO       
      SPECIMEN-1.1893          24.9317       NO       
      SPECIMEN-1.1894          24.9164       NO       
      SPECIMEN-1.1895           24.917       NO       
      SPECIMEN-1.1896          24.9249       NO       
      SPECIMEN-1.1897          24.9413       NO       
      SPECIMEN-1.1898          24.9609       NO       
      SPECIMEN-1.1899          24.9825       NO       
      SPECIMEN-1.1900          25.0018       NO       
      SPECIMEN-1.1901          25.0092       NO       
      SPECIMEN-1.1902          25.0019       NO       
      SPECIMEN-1.1903          25.0012       NO       
      SPECIMEN-1.1904          24.9877       NO       
      SPECIMEN-1.1928          44.6783       NO       
      SPECIMEN-1.1929          42.3261       NO       
      SPECIMEN-1.1930          40.3084       NO       
      SPECIMEN-1.1931           38.821       NO       
      SPECIMEN-1.1932          37.5739       NO       
      SPECIMEN-1.1939          43.5793       NO       
      SPECIMEN-1.1940           40.448       NO       
      SPECIMEN-1.1941          37.6803       NO       
      SPECIMEN-1.1942          35.2304       NO       
      SPECIMEN-1.1943          33.0951       NO       
      SPECIMEN-1.1944          31.3087       NO       
      SPECIMEN-1.1945          30.0361       NO       
      SPECIMEN-1.1946          28.9657       NO       
      SPECIMEN-1.1951          44.9293       NO       
      SPECIMEN-1.1952          41.0323       NO       
      SPECIMEN-1.1953          37.6447       NO       
      SPECIMEN-1.1954           34.722       NO       
      SPECIMEN-1.1955          32.1781       NO       
      SPECIMEN-1.1956          29.9653       NO       
      SPECIMEN-1.1957          28.0525       NO       
      SPECIMEN-1.1958           26.482       NO       
      SPECIMEN-1.1959           25.383       NO       
      SPECIMEN-1.1960          24.4559       NO       
      SPECIMEN-1.1965          40.7604       NO       
      SPECIMEN-1.1966          37.0809       NO       
      SPECIMEN-1.1967          33.9335       NO       
      SPECIMEN-1.1968          31.2267       NO       
      SPECIMEN-1.1969          28.8969       NO       
      SPECIMEN-1.1970          26.8745       NO       
      SPECIMEN-1.1971          25.1488       NO       
      SPECIMEN-1.1972           23.729       NO       
      SPECIMEN-1.1973          22.7446       NO       
      SPECIMEN-1.1974          21.9226       NO       
      SPECIMEN-1.1978          41.9435       NO       
      SPECIMEN-1.1979          37.9626       NO       
      SPECIMEN-1.1980          34.5346       NO       
      SPECIMEN-1.1981          31.6109       NO       
      SPECIMEN-1.1982          29.0979       NO       
      SPECIMEN-1.1983          26.9412       NO       
      SPECIMEN-1.1984          25.0724       NO       
      SPECIMEN-1.1985           23.478       NO       
      SPECIMEN-1.1986          22.1716       NO       
      SPECIMEN-1.1987          21.2728       NO       
      SPECIMEN-1.1988          20.5201       NO       
      SPECIMEN-1.1991          43.8258       NO       
      SPECIMEN-1.1992          39.8183       NO       
      SPECIMEN-1.1993          36.1495       NO       
      SPECIMEN-1.1994           32.967       NO       
      SPECIMEN-1.1995          30.2465       NO       
      SPECIMEN-1.1996           27.905       NO       
      SPECIMEN-1.1997          25.8827       NO       
      SPECIMEN-1.1998          24.1326       NO       
      SPECIMEN-1.1999          22.6355       NO       
      SPECIMEN-1.2000          21.4106       NO       
      SPECIMEN-1.2001          20.5742       NO       
      SPECIMEN-1.2002          19.8714       NO       
      SPECIMEN-1.2005          42.0139       NO       
      SPECIMEN-1.2006          38.4471       NO       
      SPECIMEN-1.2007          35.0917       NO       
      SPECIMEN-1.2008          32.1515       NO       
      SPECIMEN-1.2009           29.618       NO       
      SPECIMEN-1.2010          27.4267       NO       
      SPECIMEN-1.2011          25.5265       NO       
      SPECIMEN-1.2012          23.8666       NO       
      SPECIMEN-1.2013          22.4482       NO       
      SPECIMEN-1.2014          21.2821       NO       
      SPECIMEN-1.2015          20.4901       NO       
      SPECIMEN-1.2016          19.8137       NO       
      SPECIMEN-1.2018          43.8972       NO       
      SPECIMEN-1.2019          40.9311       NO       
      SPECIMEN-1.2020          37.8015       NO       
      SPECIMEN-1.2021          34.7781       NO       
      SPECIMEN-1.2022           32.079       NO       
      SPECIMEN-1.2023          29.5987       NO       
      SPECIMEN-1.2024          27.4392       NO       
      SPECIMEN-1.2025          25.5633       NO       
      SPECIMEN-1.2026          23.9237       NO       
      SPECIMEN-1.2027          22.5193       NO       
      SPECIMEN-1.2028          21.3634       NO       
      SPECIMEN-1.2029          20.5779       NO       
      SPECIMEN-1.2030          19.9229       NO       
      SPECIMEN-1.2032          43.7534       NO       
      SPECIMEN-1.2033          40.8972       NO       
      SPECIMEN-1.2034          37.8602       NO       
      SPECIMEN-1.2035          34.9092       NO       
      SPECIMEN-1.2036          32.2557       NO       
      SPECIMEN-1.2037          29.9435       NO       
      SPECIMEN-1.2038          27.9094       NO       
      SPECIMEN-1.2039          26.1218       NO       
      SPECIMEN-1.2040          24.5586       NO       
      SPECIMEN-1.2041          23.2017       NO       
      SPECIMEN-1.2042           22.091       NO       
      SPECIMEN-1.2043          21.3346       NO       
      SPECIMEN-1.2044          20.7187       NO       
      SPECIMEN-1.2046          44.6119       NO       
      SPECIMEN-1.2047          42.0692       NO       
      SPECIMEN-1.2048          39.3468       NO       
      SPECIMEN-1.2049            36.63       NO       
      SPECIMEN-1.2050          34.1353       NO       
      SPECIMEN-1.2051          31.9136       NO       
      SPECIMEN-1.2052          29.9365       NO       
      SPECIMEN-1.2053          28.1845       NO       
      SPECIMEN-1.2054           26.629       NO       
      SPECIMEN-1.2055          25.2709       NO       
      SPECIMEN-1.2056          24.1497       NO       
      SPECIMEN-1.2057          23.3968       NO       
      SPECIMEN-1.2058          22.7701       NO       
      SPECIMEN-1.2064          42.6781       NO       
      SPECIMEN-1.2065          40.1127       NO       
      SPECIMEN-1.2066          37.7883       NO       
      SPECIMEN-1.2067          35.7098       NO       
      SPECIMEN-1.2068          33.8379       NO       
      SPECIMEN-1.2069          32.1903       NO       
      SPECIMEN-1.2070          30.8186       NO       
      SPECIMEN-1.2071           29.891       NO       
      SPECIMEN-1.2072          28.9998       NO       
      SPECIMEN-1.2087          36.4746       NO       
      SPECIMEN-1.2088          35.6783       NO       
      SPECIMEN-1.2089           35.135       NO       
      SPECIMEN-1.2090          34.7016       NO       
      SPECIMEN-1.2091          34.2878       NO       
      SPECIMEN-1.2092           33.891       NO       
      SPECIMEN-1.2093          33.5074       NO       
      SPECIMEN-1.2094          33.1531       NO       
      SPECIMEN-1.2095          32.8407       NO       
      SPECIMEN-1.2096          32.6412       NO       
      SPECIMEN-1.2097          32.6337       NO       
      SPECIMEN-1.2098          32.8308       NO       
      SPECIMEN-1.2099           33.736       NO       
      SPECIMEN-1.2100          35.6116       NO       
      SPECIMEN-1.2101          28.1121       NO       
      SPECIMEN-1.2102          27.5307       NO       
      SPECIMEN-1.2103          27.1822       NO       
      SPECIMEN-1.2104          26.9138       NO       
      SPECIMEN-1.2105          26.6807       NO       
      SPECIMEN-1.2106          26.4507       NO       
      SPECIMEN-1.2107          26.2377       NO       
      SPECIMEN-1.2108          26.0336       NO       
      SPECIMEN-1.2109          25.8758       NO       
      SPECIMEN-1.2110          25.8238       NO       
      SPECIMEN-1.2111          25.8465       NO       
      SPECIMEN-1.2112          26.1573       NO       
      SPECIMEN-1.2113          27.1234       NO       
      SPECIMEN-1.2114          29.0291       NO       
      SPECIMEN-1.2115          23.7782       NO       
      SPECIMEN-1.2116          23.3383       NO       
      SPECIMEN-1.2117          23.0976       NO       
      SPECIMEN-1.2118          22.9437       NO       
      SPECIMEN-1.2119           22.812       NO       
      SPECIMEN-1.2120          22.6893       NO       
      SPECIMEN-1.2121          22.5736       NO       
      SPECIMEN-1.2122          22.4727       NO       
      SPECIMEN-1.2123          22.4085       NO       
      SPECIMEN-1.2124          22.4072       NO       
      SPECIMEN-1.2125          22.4884       NO       
      SPECIMEN-1.2126          22.8643       NO       
      SPECIMEN-1.2127           23.867       NO       
      SPECIMEN-1.2128          25.7761       NO       
      SPECIMEN-1.2129          21.3559       NO       
      SPECIMEN-1.2130          21.0034       NO       
      SPECIMEN-1.2131          20.8395       NO       
      SPECIMEN-1.2132          20.7547       NO       
      SPECIMEN-1.2133          20.6956       NO       
      SPECIMEN-1.2134          20.6394       NO       
      SPECIMEN-1.2135          20.5872       NO       
      SPECIMEN-1.2136          20.5535       NO       
      SPECIMEN-1.2137          20.5504       NO       
      SPECIMEN-1.2138          20.5645       NO       
      SPECIMEN-1.2139          20.7037       NO       
      SPECIMEN-1.2140           21.133       NO       
      SPECIMEN-1.2141          22.1579       NO       
      SPECIMEN-1.2142          24.0767       NO       
      SPECIMEN-1.2143          20.0215       NO       
      SPECIMEN-1.2144          19.7377       NO       
      SPECIMEN-1.2145          19.6253       NO       
      SPECIMEN-1.2146          19.5912       NO       
      SPECIMEN-1.2147          19.5816       NO       
      SPECIMEN-1.2148          19.5743       NO       
      SPECIMEN-1.2149          19.5722       NO       
      SPECIMEN-1.2150          19.5734       NO       
      SPECIMEN-1.2151          19.5893       NO       
      SPECIMEN-1.2152          19.6557       NO       
      SPECIMEN-1.2153          19.8401       NO       
      SPECIMEN-1.2154          20.3081       NO       
      SPECIMEN-1.2155          21.3623       NO       
      SPECIMEN-1.2156          23.2959       NO       
      SPECIMEN-1.2157          19.4236       NO       
      SPECIMEN-1.2158          19.1829       NO       
      SPECIMEN-1.2159          19.1176       NO       
      SPECIMEN-1.2160          19.1136       NO       
      SPECIMEN-1.2161          19.1297       NO       
      SPECIMEN-1.2162          19.1623       NO       
      SPECIMEN-1.2163          19.1968       NO       
      SPECIMEN-1.2164           19.241       NO       
      SPECIMEN-1.2165          19.3011       NO       
      SPECIMEN-1.2166          19.4095       NO       
      SPECIMEN-1.2167          19.6358       NO       
      SPECIMEN-1.2168          20.1433       NO       
      SPECIMEN-1.2169          21.2312       NO       
      SPECIMEN-1.2170          23.1916       NO       
      SPECIMEN-1.2171          19.3772       NO       
      SPECIMEN-1.2172          19.1425       NO       
      SPECIMEN-1.2173          19.0857       NO       
      SPECIMEN-1.2174          19.0836       NO       
      SPECIMEN-1.2175          19.1091       NO       
      SPECIMEN-1.2176          19.1512       NO       
      SPECIMEN-1.2177          19.1959       NO       
      SPECIMEN-1.2178          19.2478       NO       
      SPECIMEN-1.2179          19.3177       NO       
      SPECIMEN-1.2180          19.4353       NO       
      SPECIMEN-1.2181          19.6728       NO       
      SPECIMEN-1.2182          20.1901       NO       
      SPECIMEN-1.2183          21.2852       NO       
      SPECIMEN-1.2184          23.2521       NO       
      SPECIMEN-1.2185          19.5211       NO       
      SPECIMEN-1.2186          19.3226       NO       
      SPECIMEN-1.2187          19.3025       NO       
      SPECIMEN-1.2188          19.3098       NO       
      SPECIMEN-1.2189           19.377       NO       
      SPECIMEN-1.2190          19.4616       NO       
      SPECIMEN-1.2191          19.5529       NO       
      SPECIMEN-1.2192          19.6482       NO       
      SPECIMEN-1.2193          19.7672       NO       
      SPECIMEN-1.2194          19.9333       NO       
      SPECIMEN-1.2195          20.2154       NO       
      SPECIMEN-1.2196          20.7796       NO       
      SPECIMEN-1.2197          21.9171       NO       
      SPECIMEN-1.2198          23.9119       NO       
      SPECIMEN-1.2199          20.3341       NO       
      SPECIMEN-1.2200           20.167       NO       
      SPECIMEN-1.2201          20.1553       NO       
      SPECIMEN-1.2202          20.2038       NO       
      SPECIMEN-1.2203          20.3175       NO       
      SPECIMEN-1.2204           20.454       NO       
      SPECIMEN-1.2205          20.5958       NO       
      SPECIMEN-1.2206           20.744       NO       
      SPECIMEN-1.2207          20.9133       NO       
      SPECIMEN-1.2208           21.133       NO       
      SPECIMEN-1.2209          21.4782       NO       
      SPECIMEN-1.2210          22.1017       NO       
      SPECIMEN-1.2211          23.2837       NO       
      SPECIMEN-1.2212          25.2978       NO       
      SPECIMEN-1.2213          22.4157       NO       
      SPECIMEN-1.2214          22.2574       NO       
      SPECIMEN-1.2215          22.2483       NO       
      SPECIMEN-1.2216          22.3247       NO       
      SPECIMEN-1.2217          22.4882       NO       
      SPECIMEN-1.2218          22.6707       NO       
      SPECIMEN-1.2219          22.8682       NO       
      SPECIMEN-1.2220          23.0753       NO       
      SPECIMEN-1.2221          23.3065       NO       
      SPECIMEN-1.2222          23.5923       NO       
      SPECIMEN-1.2223          24.0062       NO       
      SPECIMEN-1.2224          24.7102       NO       
      SPECIMEN-1.2225          25.9709       NO       
      SPECIMEN-1.2226          27.9997       NO       
      SPECIMEN-1.2227          28.6413       NO       
      SPECIMEN-1.2228          28.3823       NO       
      SPECIMEN-1.2229          28.3541       NO       
      SPECIMEN-1.2230          28.3806       NO       
      SPECIMEN-1.2231           28.522       NO       
      SPECIMEN-1.2232          28.7121       NO       
      SPECIMEN-1.2233          28.9089       NO       
      SPECIMEN-1.2234          29.1181       NO       
      SPECIMEN-1.2235          29.3596       NO       
      SPECIMEN-1.2236           29.666       NO       
      SPECIMEN-1.2237          30.1183       NO       
      SPECIMEN-1.2238          30.8986       NO       
      SPECIMEN-1.2239          32.3045       NO       
      SPECIMEN-1.2240          34.4927       NO       
      SPECIMEN-1.2262          44.1563       NO       
      SPECIMEN-1.2265          42.1453       NO       
      SPECIMEN-1.2266          44.4721       NO       
      SPECIMEN-1.2268          40.2839       NO       
      SPECIMEN-1.2269          42.7711       NO       
      SPECIMEN-1.2271          38.5045       NO       
      SPECIMEN-1.2272          41.1242       NO       
      SPECIMEN-1.2274          36.6934       NO       
      SPECIMEN-1.2275          39.4218       NO       
      SPECIMEN-1.2277          34.6983       NO       
      SPECIMEN-1.2278          37.5489       NO       
      SPECIMEN-1.2280          33.5592       NO       
      SPECIMEN-1.2281          36.7414       NO       
      SPECIMEN-1.2283          43.0202       NO       
      SPECIMEN-1.2284          43.4913       NO       
      SPECIMEN-1.2286          42.3251       NO       
      SPECIMEN-1.2287          42.7934       NO       
      SPECIMEN-1.2289          41.4804       NO       
      SPECIMEN-1.2290          41.9698       NO       
      SPECIMEN-1.2292          40.4857       NO       
      SPECIMEN-1.2293          41.0048       NO       
      SPECIMEN-1.2295          39.4134       NO       
      SPECIMEN-1.2296          39.9537       NO       
      SPECIMEN-1.2298          38.3367       NO       
      SPECIMEN-1.2299          38.8944       NO       
      SPECIMEN-1.2301          37.2807       NO       
      SPECIMEN-1.2302           37.852       NO       
      SPECIMEN-1.2304          36.2612       NO       
      SPECIMEN-1.2305           36.847       NO       
      SPECIMEN-1.2306          44.3643       NO       
      SPECIMEN-1.2307          35.2698       NO       
      SPECIMEN-1.2308          35.8638       NO       
      SPECIMEN-1.2309          43.5478       NO       
      SPECIMEN-1.2310          34.3273       NO       
      SPECIMEN-1.2311          34.9276       NO       
      SPECIMEN-1.2312           42.738       NO       
      SPECIMEN-1.2313          33.4018       NO       
      SPECIMEN-1.2314          33.9998       NO       
      SPECIMEN-1.2315          41.9218       NO       
      SPECIMEN-1.2316          32.4725       NO       
      SPECIMEN-1.2317          33.0565       NO       
      SPECIMEN-1.2318          41.0953       NO       
      SPECIMEN-1.2319          31.5943       NO       
      SPECIMEN-1.2320          32.1617       NO       
      SPECIMEN-1.2321          40.3194       NO       
      SPECIMEN-1.2322          31.3103       NO       
      SPECIMEN-1.2323          31.9225       NO       
      SPECIMEN-1.2324          40.2484       NO       
      SPECIMEN-1.2325           32.954       NO       
      SPECIMEN-1.2326          32.4956       NO       
      SPECIMEN-1.2327          35.6082       NO       
      SPECIMEN-1.2328          32.3903       NO       
      SPECIMEN-1.2329          32.1494       NO       
      SPECIMEN-1.2330          35.7898       NO       
      SPECIMEN-1.2331          31.6589       NO       
      SPECIMEN-1.2332            31.48       NO       
      SPECIMEN-1.2333          35.3346       NO       
      SPECIMEN-1.2334          30.9308       NO       
      SPECIMEN-1.2335          30.7598       NO       
      SPECIMEN-1.2336          34.7643       NO       
      SPECIMEN-1.2337           30.253       NO       
      SPECIMEN-1.2338          30.0664       NO       
      SPECIMEN-1.2339          34.1735       NO       
      SPECIMEN-1.2340          29.6217       NO       
      SPECIMEN-1.2341          29.4088       NO       
      SPECIMEN-1.2342          33.5726       NO       
      SPECIMEN-1.2343          29.0193       NO       
      SPECIMEN-1.2344          28.7836       NO       
      SPECIMEN-1.2345          33.0058       NO       
      SPECIMEN-1.2346          28.4464       NO       
      SPECIMEN-1.2347          28.1872       NO       
      SPECIMEN-1.2348          32.4516       NO       
      SPECIMEN-1.2349          27.9019       NO       
      SPECIMEN-1.2350          27.6152       NO       
      SPECIMEN-1.2351          31.9077       NO       
      SPECIMEN-1.2352          27.3753       NO       
      SPECIMEN-1.2353          27.0684       NO       
      SPECIMEN-1.2354          31.4007       NO       
      SPECIMEN-1.2355          26.8699       NO       
      SPECIMEN-1.2356          26.5333       NO       
      SPECIMEN-1.2357          30.8834       NO       
      SPECIMEN-1.2358          26.3862       NO       
      SPECIMEN-1.2359          26.0083       NO       
      SPECIMEN-1.2360          30.3743       NO       
      SPECIMEN-1.2361           25.942       NO       
      SPECIMEN-1.2362          25.5108       NO       
      SPECIMEN-1.2363          29.9311       NO       
      SPECIMEN-1.2364          25.7105       NO       
      SPECIMEN-1.2365          25.3166       NO       
      SPECIMEN-1.2366          29.9322       NO       
      SPECIMEN-1.2381          36.2783       NO       
      SPECIMEN-1.2382          36.1244       NO       
      SPECIMEN-1.2383          36.1117       NO       
      SPECIMEN-1.2384          36.0513       NO       
      SPECIMEN-1.2385          35.9384       NO       
      SPECIMEN-1.2386          35.8006       NO       
      SPECIMEN-1.2387          35.6594       NO       
      SPECIMEN-1.2388          35.5153       NO       
      SPECIMEN-1.2389          35.3726       NO       
      SPECIMEN-1.2390          35.2215       NO       
      SPECIMEN-1.2391          35.0705       NO       
      SPECIMEN-1.2392          34.9493       NO       
      SPECIMEN-1.2393          34.9052       NO       
      SPECIMEN-1.2394            34.92       NO       
      SPECIMEN-1.2395          33.1095       NO       
      SPECIMEN-1.2396          33.0944       NO       
      SPECIMEN-1.2397          33.3108       NO       
      SPECIMEN-1.2398          33.2689       NO       
      SPECIMEN-1.2399          33.1461       NO       
      SPECIMEN-1.2400          32.9948       NO       
      SPECIMEN-1.2401          32.8461       NO       
      SPECIMEN-1.2402           32.683       NO       
      SPECIMEN-1.2403            32.53       NO       
      SPECIMEN-1.2404          32.3856       NO       
      SPECIMEN-1.2405          32.2877       NO       
      SPECIMEN-1.2406          32.2791       NO       
      SPECIMEN-1.2407          32.3051       NO       
      SPECIMEN-1.2408          32.4133       NO       
      SPECIMEN-1.2409          40.2289       NO       
      SPECIMEN-1.2410          40.1192       NO       
      SPECIMEN-1.2411          40.0545       NO       
      SPECIMEN-1.2412           39.998       NO       
      SPECIMEN-1.2413          39.9569       NO       
      SPECIMEN-1.2414          39.9067       NO       
      SPECIMEN-1.2415          39.8651       NO       
      SPECIMEN-1.2416          39.8149       NO       
      SPECIMEN-1.2417          39.7662       NO       
      SPECIMEN-1.2418          39.6845       NO       
      SPECIMEN-1.2419          39.5313       NO       
      SPECIMEN-1.2420          39.2996       NO       
      SPECIMEN-1.2421          39.0821       NO       
      SPECIMEN-1.2422          39.0695       NO       
      SPECIMEN-1.2423          31.5407       NO       
      SPECIMEN-1.2424          31.3727       NO       
      SPECIMEN-1.2425           31.305       NO       
      SPECIMEN-1.2426           31.255       NO       
      SPECIMEN-1.2427          31.2167       NO       
      SPECIMEN-1.2428           31.173       NO       
      SPECIMEN-1.2429          31.1403       NO       
      SPECIMEN-1.2430          31.1035       NO       
      SPECIMEN-1.2431          31.0548       NO       
      SPECIMEN-1.2432          30.9892       NO       
      SPECIMEN-1.2433          30.8855       NO       
      SPECIMEN-1.2434          30.7641       NO       
      SPECIMEN-1.2435          30.6792       NO       
      SPECIMEN-1.2436          30.6454       NO       
      SPECIMEN-1.2437          31.0599       NO       
      SPECIMEN-1.2438          30.9422       NO       
      SPECIMEN-1.2439          30.8881       NO       
[...]
                                     7.6339E-02      7.6341E-02      7.6342E-02      7.6342E-02      7.6343E-02

                  -161-              7.3142E-02      7.6272E-02      7.6369E-02      7.6394E-02      7.6409E-02
                                     7.6421E-02      7.6453E-02      7.6477E-02      7.6485E-02      7.6517E-02
                                     7.6499E-02      7.6508E-02      7.6510E-02      7.6511E-02      7.6513E-02
                                     7.6514E-02      7.6515E-02      7.6516E-02      7.6517E-02      7.6518E-02

                  -162-              7.3292E-02      7.6425E-02      7.6523E-02      7.6548E-02      7.6563E-02
                                     7.6575E-02      7.6607E-02      7.6631E-02      7.6639E-02      7.6670E-02
                                     7.6653E-02      7.6661E-02      7.6663E-02      7.6665E-02      7.6667E-02
                                     7.6668E-02      7.6669E-02      7.6670E-02      7.6671E-02      7.6672E-02

                  -163-              7.3433E-02      7.6576E-02      7.6673E-02      7.6699E-02      7.6714E-02
                                     7.6726E-02      7.6758E-02      7.6781E-02      7.6790E-02      7.6820E-02
                                     7.6804E-02      7.6811E-02      7.6814E-02      7.6815E-02      7.6817E-02
                                     7.6818E-02      7.6819E-02      7.6820E-02      7.6821E-02      7.6822E-02

                  -165-              7.3564E-02      7.6709E-02      7.6807E-02      7.6832E-02      7.6848E-02
                                     7.6860E-02      7.6891E-02      7.6915E-02      7.6923E-02      7.6952E-02
                                     7.6936E-02      7.6943E-02      7.6946E-02      7.6947E-02      7.6949E-02
                                     7.6950E-02      7.6951E-02      7.6953E-02      7.6953E-02      7.6954E-02

                  -166-              7.3686E-02      7.6840E-02      7.6938E-02      7.6963E-02      7.6979E-02
                                     7.6991E-02      7.7022E-02      7.7045E-02      7.7054E-02      7.7081E-02
                                     7.7065E-02      7.7073E-02      7.7075E-02      7.7076E-02      7.7078E-02
                                     7.7079E-02      7.7081E-02      7.7082E-02      7.7083E-02      7.7083E-02

                  -167-              7.3800E-02      7.6956E-02      7.7054E-02      7.7080E-02      7.7095E-02
                                     7.7107E-02      7.7137E-02      7.7160E-02      7.7170E-02      7.7194E-02
                                     7.7180E-02      7.7187E-02      7.7189E-02      7.7191E-02      7.7192E-02
                                     7.7194E-02      7.7195E-02      7.7196E-02      7.7197E-02      7.7198E-02

                  -168-              7.3906E-02      7.7069E-02      7.7168E-02      7.7193E-02      7.7208E-02
                                     7.7221E-02      7.7249E-02      7.7273E-02      7.7283E-02      7.7306E-02
                                     7.7292E-02      7.7298E-02      7.7300E-02      7.7302E-02      7.7304E-02
                                     7.7305E-02      7.7306E-02      7.7308E-02      7.7308E-02      7.7309E-02

                  -169-              7.4005E-02      7.7170E-02      7.7268E-02      7.7294E-02      7.7309E-02
                                     7.7321E-02      7.7348E-02      7.7372E-02      7.7383E-02      7.7403E-02
                                     7.7391E-02      7.7397E-02      7.7399E-02      7.7400E-02      7.7402E-02
                                     7.7404E-02      7.7405E-02      7.7406E-02      7.7407E-02      7.7408E-02

                  -170-              7.4096E-02      7.7268E-02      7.7367E-02      7.7392E-02      7.7407E-02
                                     7.7420E-02      7.7446E-02      7.7469E-02      7.7481E-02      7.7499E-02
                                     7.7487E-02      7.7493E-02      7.7495E-02      7.7497E-02      7.7498E-02
                                     7.7500E-02      7.7501E-02      7.7502E-02      7.7503E-02      7.7504E-02

                  -171-              7.4182E-02      7.7355E-02      7.7454E-02      7.7479E-02      7.7494E-02
                                     7.7507E-02      7.7532E-02      7.7555E-02      7.7568E-02      7.7584E-02
                                     7.7573E-02      7.7578E-02      7.7580E-02      7.7582E-02      7.7583E-02
                                     7.7585E-02      7.7586E-02      7.7587E-02      7.7588E-02      7.7589E-02

                  -172-              7.4260E-02      7.7440E-02      7.7539E-02      7.7564E-02      7.7580E-02
                                     7.7592E-02      7.7616E-02      7.7640E-02      7.7653E-02      7.7666E-02
                                     7.7656E-02      7.7661E-02      7.7663E-02      7.7665E-02      7.7666E-02
                                     7.7668E-02      7.7669E-02      7.7671E-02      7.7672E-02      7.7672E-02

                  -173-              7.4335E-02      7.7514E-02      7.7613E-02      7.7639E-02      7.7654E-02
                                     7.7667E-02      7.7689E-02      7.7714E-02      7.7727E-02      7.7739E-02
                                     7.7729E-02      7.7734E-02      7.7736E-02      7.7738E-02      7.7740E-02
                                     7.7741E-02      7.7742E-02      7.7744E-02      7.7745E-02      7.7745E-02

                  -174-              7.4402E-02      7.7588E-02      7.7687E-02      7.7712E-02      7.7728E-02
                                     7.7740E-02      7.7762E-02      7.7786E-02      7.7800E-02      7.7810E-02
                                     7.7801E-02      7.7805E-02      7.7807E-02      7.7809E-02      7.7811E-02
                                     7.7813E-02      7.7814E-02      7.7815E-02      7.7816E-02      7.7817E-02

                  -176-              7.4466E-02      7.7651E-02      7.7751E-02      7.7776E-02      7.7792E-02
                                     7.7804E-02      7.7825E-02      7.7849E-02      7.7863E-02      7.7871E-02
                                     7.7864E-02      7.7868E-02      7.7870E-02      7.7872E-02      7.7874E-02
                                     7.7875E-02      7.7876E-02      7.7878E-02      7.7879E-02      7.7880E-02

                  -177-              7.4523E-02      7.7714E-02      7.7814E-02      7.7839E-02      7.7855E-02
                                     7.7867E-02      7.7887E-02      7.7911E-02      7.7925E-02      7.7932E-02
                                     7.7925E-02      7.7929E-02      7.7931E-02      7.7933E-02      7.7935E-02
                                     7.7936E-02      7.7938E-02      7.7939E-02      7.7940E-02      7.7941E-02

                  -178-              7.4578E-02      7.7768E-02      7.7868E-02      7.7893E-02      7.7909E-02
                                     7.7921E-02      7.7940E-02      7.7964E-02      7.7979E-02      7.7984E-02
                                     7.7979E-02      7.7982E-02      7.7984E-02      7.7986E-02      7.7988E-02
                                     7.7989E-02      7.7991E-02      7.7992E-02      7.7993E-02      7.7994E-02

                  -179-              7.4626E-02      7.7821E-02      7.7921E-02      7.7946E-02      7.7962E-02
                                     7.7974E-02      7.7993E-02      7.8017E-02      7.8031E-02      7.8035E-02
                                     7.8031E-02      7.8033E-02      7.8035E-02      7.8037E-02      7.8039E-02
                                     7.8041E-02      7.8042E-02      7.8044E-02      7.8045E-02      7.8046E-02

                  -180-              7.4672E-02      7.7866E-02      7.7966E-02      7.7991E-02      7.8007E-02
                                     7.8019E-02      7.8037E-02      7.8061E-02      7.8076E-02      7.8079E-02
                                     7.8075E-02      7.8077E-02      7.8079E-02      7.8082E-02      7.8083E-02
                                     7.8085E-02      7.8087E-02      7.8088E-02      7.8089E-02      7.8090E-02

                  -181-              7.4711E-02      7.7910E-02      7.8010E-02      7.8036E-02      7.8051E-02
                                     7.8064E-02      7.8081E-02      7.8105E-02      7.8120E-02      7.8122E-02
                                     7.8118E-02      7.8121E-02      7.8123E-02      7.8125E-02      7.8127E-02
                                     7.8128E-02      7.8130E-02      7.8131E-02      7.8132E-02      7.8133E-02

                  -182-              7.4749E-02      7.7947E-02      7.8047E-02      7.8072E-02      7.8088E-02
                                     7.8100E-02      7.8117E-02      7.8141E-02      7.8155E-02      7.8157E-02
                                     7.8154E-02      7.8156E-02      7.8158E-02      7.8160E-02      7.8162E-02
                                     7.8164E-02      7.8166E-02      7.8167E-02      7.8168E-02      7.8169E-02

                  -183-              7.4780E-02      7.7982E-02      7.8082E-02      7.8108E-02      7.8123E-02
                                     7.8136E-02      7.8152E-02      7.8176E-02      7.8190E-02      7.8191E-02
                                     7.8189E-02      7.8191E-02      7.8193E-02      7.8195E-02      7.8197E-02
                                     7.8199E-02      7.8201E-02      7.8202E-02      7.8203E-02      7.8204E-02

                  -184-              7.4810E-02      7.8010E-02      7.8110E-02      7.8135E-02      7.8151E-02
                                     7.8163E-02      7.8179E-02      7.8202E-02      7.8217E-02      7.8217E-02
                                     7.8216E-02      7.8218E-02      7.8220E-02      7.8222E-02      7.8224E-02
                                     7.8226E-02      7.8227E-02      7.8229E-02      7.8230E-02      7.8231E-02

                  -185-              7.4834E-02      7.8038E-02      7.8138E-02      7.8164E-02      7.8179E-02
                                     7.8192E-02      7.8207E-02      7.8230E-02      7.8245E-02      7.8244E-02
                                     7.8244E-02      7.8245E-02      7.8247E-02      7.8250E-02      7.8252E-02
                                     7.8253E-02      7.8255E-02      7.8256E-02      7.8258E-02      7.8259E-02

                  -187-              7.4852E-02      7.8054E-02      7.8154E-02      7.8180E-02      7.8196E-02
                                     7.8208E-02      7.8224E-02      7.8246E-02      7.8260E-02      7.8260E-02
                                     7.8261E-02      7.8262E-02      7.8264E-02      7.8266E-02      7.8268E-02
                                     7.8270E-02      7.8271E-02      7.8273E-02      7.8274E-02      7.8275E-02

                  -188-              7.4856E-02      7.8064E-02      7.8164E-02      7.8190E-02      7.8205E-02
                                     7.8218E-02      7.8234E-02      7.8255E-02      7.8269E-02      7.8268E-02
                                     7.8271E-02      7.8271E-02      7.8272E-02      7.8275E-02      7.8277E-02
                                     7.8278E-02      7.8280E-02      7.8282E-02      7.8283E-02      7.8284E-02

                  -189-              7.4870E-02      7.8069E-02      7.8169E-02      7.8194E-02      7.8210E-02
                                     7.8222E-02      7.8237E-02      7.8259E-02      7.8273E-02      7.8273E-02
                                     7.8272E-02      7.8274E-02      7.8277E-02      7.8280E-02      7.8282E-02
                                     7.8284E-02      7.8285E-02      7.8287E-02      7.8288E-02      7.8289E-02

                  -190-              7.4831E-02      7.8025E-02      7.8124E-02      7.8149E-02      7.8165E-02
                                     7.8178E-02      7.8186E-02      7.8217E-02      7.8228E-02      7.8227E-02
                                     7.8218E-02      7.8227E-02      7.8230E-02      7.8233E-02      7.8235E-02
                                     7.8237E-02      7.8239E-02      7.8240E-02      7.8242E-02      7.8243E-02

                  -191-              7.4813E-02      7.8025E-02      7.8127E-02      7.8153E-02      7.8169E-02
                                     7.8181E-02      7.8203E-02      7.8211E-02      7.8226E-02      7.8227E-02
                                     7.8244E-02      7.8237E-02      7.8237E-02      7.8239E-02      7.8241E-02
                                     7.8243E-02      7.8244E-02      7.8246E-02      7.8247E-02      7.8248E-02

                  -192-              7.4425E-02      7.7631E-02      7.7734E-02      7.7760E-02      7.7777E-02
                                     7.7790E-02      7.7818E-02      7.7836E-02      7.7870E-02      7.7950E-02
                                     7.7861E-02      7.7859E-02      7.7860E-02      7.7862E-02      7.7863E-02
                                     7.7865E-02      7.7866E-02      7.7868E-02      7.7869E-02      7.7870E-02

                  -193-              7.3806E-02      7.6929E-02      7.7022E-02      7.7046E-02      7.7060E-02
                                     7.7073E-02      7.6970E-02      7.7075E-02      7.7058E-02      7.6852E-02
                                     7.7077E-02      7.7092E-02      7.7101E-02      7.7106E-02      7.7111E-02
                                     7.7114E-02      7.7117E-02      7.7119E-02      7.7121E-02      7.7122E-02

                  -194-              7.5892E-02      7.9208E-02      7.9320E-02      7.9348E-02      7.9365E-02
                                     7.9377E-02      7.7622E-02      7.7286E-02      7.7383E-02      7.8141E-02
                                     8.2365E-02      8.2949E-02      8.3336E-02      8.3601E-02      8.3791E-02
                                     8.3931E-02      8.4037E-02      8.4120E-02      8.4184E-02      8.4235E-02



     LABELS REFERENCED IN THE ABOVE TABLE

      -143-    ASSEMBLY__PICKEDSET172-10_                                                      
      -144-    ASSEMBLY__PICKEDSET172-11_                                                      
      -145-    ASSEMBLY__PICKEDSET172-12_                                                      
      -146-    ASSEMBLY__PICKEDSET172-13_                                                      
      -147-    ASSEMBLY__PICKEDSET172-14_                                                      
      -148-    ASSEMBLY__PICKEDSET172-15_                                                      
      -149-    ASSEMBLY__PICKEDSET172-16_                                                      
      -150-    ASSEMBLY__PICKEDSET172-17_                                                      
      -151-    ASSEMBLY__PICKEDSET172-18_                                                      
      -152-    ASSEMBLY__PICKEDSET172-19_                                                      
      -153-    ASSEMBLY__PICKEDSET172-1_                                                       
      -154-    ASSEMBLY__PICKEDSET172-20_                                                      
      -155-    ASSEMBLY__PICKEDSET172-21_                                                      
      -156-    ASSEMBLY__PICKEDSET172-22_                                                      
      -157-    ASSEMBLY__PICKEDSET172-23_                                                      
      -158-    ASSEMBLY__PICKEDSET172-24_                                                      
      -159-    ASSEMBLY__PICKEDSET172-25_                                                      
      -160-    ASSEMBLY__PICKEDSET172-26_                                                      
      -161-    ASSEMBLY__PICKEDSET172-27_                                                      
      -162-    ASSEMBLY__PICKEDSET172-28_                                                      
      -163-    ASSEMBLY__PICKEDSET172-29_                                                      
      -164-    ASSEMBLY__PICKEDSET172-2_                                                       
      -165-    ASSEMBLY__PICKEDSET172-30_                                                      
      -166-    ASSEMBLY__PICKEDSET172-31_                                                      
      -167-    ASSEMBLY__PICKEDSET172-32_                                                      
      -168-    ASSEMBLY__PICKEDSET172-33_                                                      
      -169-    ASSEMBLY__PICKEDSET172-34_                                                      
      -170-    ASSEMBLY__PICKEDSET172-35_                                                      
      -171-    ASSEMBLY__PICKEDSET172-36_                                                      
      -172-    ASSEMBLY__PICKEDSET172-37_                                                      
      -173-    ASSEMBLY__PICKEDSET172-38_                                                      
      -174-    ASSEMBLY__PICKEDSET172-39_                                                      
      -175-    ASSEMBLY__PICKEDSET172-3_                                                       
      -176-    ASSEMBLY__PICKEDSET172-40_                                                      
      -177-    ASSEMBLY__PICKEDSET172-41_                                                      
      -178-    ASSEMBLY__PICKEDSET172-42_                                                      
      -179-    ASSEMBLY__PICKEDSET172-43_                                                      
      -180-    ASSEMBLY__PICKEDSET172-44_                                                      
      -181-    ASSEMBLY__PICKEDSET172-45_                                                      
      -182-    ASSEMBLY__PICKEDSET172-46_                                                      
      -183-    ASSEMBLY__PICKEDSET172-47_                                                      
      -184-    ASSEMBLY__PICKEDSET172-48_                                                      
      -185-    ASSEMBLY__PICKEDSET172-49_                                                      
      -186-    ASSEMBLY__PICKEDSET172-4_                                                       
      -187-    ASSEMBLY__PICKEDSET172-50_                                                      
      -188-    ASSEMBLY__PICKEDSET172-51_                                                      
      -189-    ASSEMBLY__PICKEDSET172-52_                                                      
      -190-    ASSEMBLY__PICKEDSET172-53_                                                      
      -191-    ASSEMBLY__PICKEDSET172-54_                                                      
      -192-    ASSEMBLY__PICKEDSET172-55_                                                      
      -193-    ASSEMBLY__PICKEDSET172-56_                                                      
      -194-    ASSEMBLY__PICKEDSET172-57_                                                      
      -195-    ASSEMBLY__PICKEDSET172-5_                                                       
      -196-    ASSEMBLY__PICKEDSET172-6_                                                       
      -197-    ASSEMBLY__PICKEDSET172-7_                                                       
      -198-    ASSEMBLY__PICKEDSET172-8_                                                       
      -199-    ASSEMBLY__PICKEDSET172-9_                                                       


          THE ANALYSIS HAS BEEN COMPLETED



                              ANALYSIS COMPLETE
                              WITH    175 WARNING MESSAGES ON THE DAT FILE
                              AND       1 WARNING MESSAGES ON THE MSG FILE



     JOB TIME SUMMARY
       USER TIME (SEC)      =   74198.    
       SYSTEM TIME (SEC)    =   2274.0    
       TOTAL CPU TIME (SEC) =   76472.    
       WALLCLOCK TIME (SEC) =       6086
